Circuit: * D:\Documents\Github\PirateMIDI\Gizmos\zcd-hv-sim.asc

Per .tran options, skipping operating point for transient analysis.
Heightened Def Con from 3.29819e-006 +to 3.29819e-006
Heightened Def Con from 3.29819e-006 to 3.29819e-006
Heightened Def Con from 3.29819e-006 to 3.29819e-006
Heightened Def Con from 3.29819e-006 to 3.29819e-006
Heightened Def Con from 3.29819e-006 ++++++++++++++++++++to 3.2982e-006
Heightened Def Con from 3.29821e-006 +to 3.29821e-006
Heightened Def Con from 3.29821e-006 to 3.29821e-006
Heightened Def Con from 3.29821e-006 +++++to 3.29821e-006
Heightened Def Con from 3.29821e-006 to 3.29821e-006
Heightened Def Con from 3.29821e-006 +++++++++++++++++++++to 3.29822e-006
Heightened Def Con from 3.29823e-006 +to 3.29823e-006
Heightened Def Con from 3.29823e-006 ++++++to 3.29823e-006
Heightened Def Con from 3.29823e-006 +++to 3.29823e-006
Heightened Def Con from 3.29823e-006 to 3.29823e-006
Heightened Def Con from 3.29823e-006 to 3.29823e-006
Heightened Def Con from 3.29823e-006 +++++++++++++++++++++to 3.29825e-006
Heightened Def Con from 3.29825e-006 ++++to 3.29825e-006
Heightened Def Con from 3.29825e-006 to 3.29825e-006
Heightened Def Con from 3.29825e-006 ++++++++++++++++++++++to 3.29838e-006
Heightened Def Con from 3.29838e-006 to 3.29838e-006
Heightened Def Con from 3.29838e-006 +++++++++++++++++++++++to 3.2985e-006
Heightened Def Con from 3.29851e-006 to 3.29851e-006
Heightened Def Con from 3.29851e-006 +++++++++++++++++++++++to 3.29853e-006
Heightened Def Con from 3.29853e-006 +++++++++++++++++++++++to 3.29854e-006
Heightened Def Con from 3.29855e-006 to 3.29855e-006
Heightened Def Con from 3.29855e-006 +to 3.29855e-006
Heightened Def Con from 3.29855e-006 ++++++++++++++++++++++++to 3.29867e-006
Heightened Def Con from 3.29868e-006 ++++++++++++++++++++++++to 3.29881e-006
Heightened Def Con from 3.29881e-006 ++++++++++++++++++++++++to 3.29894e-006
Heightened Def Con from 3.29894e-006 to 3.29894e-006
Heightened Def Con from 3.29894e-006 ++++++++to 3.29894e-006
Heightened Def Con from 3.29894e-006 to 3.29894e-006
Heightened Def Con from 3.29894e-006 +++++++++++++++++++++++++to 3.29994e-006
Heightened Def Con from 0.000503123 to 0.000503123
Heightened Def Con from 0.000503123 to 0.000503123
Heightened Def Con from 0.000503123 to 0.000503123
Heightened Def Con from 0.000503123 to 0.000503123
Heightened Def Con from 0.000503123 to 0.000503123
Heightened Def Con from 0.000503123 to 0.000503123
Heightened Def Con from 0.000503123 to 0.000503123
Heightened Def Con from 0.000503123 to 0.000503123
Heightened Def Con from 0.000503123 to 0.000503123
Heightened Def Con from 0.000503123 to 0.000503123
Heightened Def Con from 0.000503123 to 0.000503123
Heightened Def Con from 0.000503123 to 0.000503123
Heightened Def Con from 0.000503123 to 0.000503123
Heightened Def Con from 0.000503123 to 0.000503123
Heightened Def Con from 0.000503123 to 0.000503123
Heightened Def Con from 0.000503123 to 0.000503123
Heightened Def Con from 0.000503123 to 0.000503123
Heightened Def Con from 0.000503123 to 0.000503123
Heightened Def Con from 0.000503123 to 0.000503123
Heightened Def Con from 0.000503123 to 0.000503123
Heightened Def Con from 0.000503123 to 0.000503123
Heightened Def Con from 0.000503123 to 0.000503123
Heightened Def Con from 0.000503123 to 0.000503123
Heightened Def Con from 0.000503123 to 0.000503123
Heightened Def Con from 0.000503123 to 0.000503123
Heightened Def Con from 0.000503123 to 0.000503123
Heightened Def Con from 0.000503123 to 0.000503123
Heightened Def Con from 0.000503123 to 0.000503123
Heightened Def Con from 0.000503123 to 0.000503123
Heightened Def Con from 0.000503123 to 0.000503123
Heightened Def Con from 0.000503123 to 0.000503123
Heightened Def Con from 0.000503123 to 0.000503123
Heightened Def Con from 0.000503123 to 0.000503123
Heightened Def Con from 0.000503123 to 0.000503123
Heightened Def Con from 0.000503123 to 0.000503123
Heightened Def Con from 0.000503123 to 0.000503123
Heightened Def Con from 0.000503123 to 0.000503123
Heightened Def Con from 0.000503123 to 0.000503123
Heightened Def Con from 0.000503123 to 0.000503123
Heightened Def Con from 0.000503123 to 0.000503123
Heightened Def Con from 0.000503123 to 0.000503123
Heightened Def Con from 0.000503123 to 0.000503123
Heightened Def Con from 0.000503123 to 0.000503123
Heightened Def Con from 0.000503123 to 0.000503123
Heightened Def Con from 0.000503123 to 0.000503123
Heightened Def Con from 0.000503123 to 0.000503123
Heightened Def Con from 0.000503123 to 0.000503123
Heightened Def Con from 0.000503123 to 0.000503123
Heightened Def Con from 0.000503123 to 0.000503123
Heightened Def Con from 0.000503123 to 0.000503123
Heightened Def Con from 0.000503123 to 0.000503123
Heightened Def Con from 0.000503123 to 0.000503123
Heightened Def Con from 0.000503123 to 0.000503123
Heightened Def Con from 0.000503123 to 0.000503123
Heightened Def Con from 0.000503123 to 0.000503123
Heightened Def Con from 0.000503123 +++to 0.000503123
Heightened Def Con from 0.000503123 to 0.000503123
Heightened Def Con from 0.000503123 +to 0.000503123
Heightened Def Con from 0.000503123 to 0.000503123
Heightened Def Con from 0.000503123 ++to 0.000503123
Heightened Def Con from 0.000503123 ++to 0.000503123
Heightened Def Con from 0.000503123 ++to 0.000503123
Heightened Def Con from 0.000503123 to 0.000503123
Heightened Def Con from 0.000503123 ++to 0.000503123
Heightened Def Con from 0.000503123 to 0.000503123
Heightened Def Con from 0.000503123 +to 0.000503123
Heightened Def Con from 0.000503123 +to 0.000503123
Heightened Def Con from 0.000503123 +++to 0.000503123
Heightened Def Con from 0.000503123 ++++to 0.000503123
Heightened Def Con from 0.000503123 to 0.000503123
Heightened Def Con from 0.000503123 to 0.000503123
Heightened Def Con from 0.000503123 to 0.000503123
Heightened Def Con from 0.000503123 to 0.000503123
Heightened Def Con from 0.000503123 +++to 0.000503123
Heightened Def Con from 0.000503123 +to 0.000503123
Heightened Def Con from 0.000503123 +++to 0.000503123
Heightened Def Con from 0.000503123 +to 0.000503123
Heightened Def Con from 0.000503123 to 0.000503123
Heightened Def Con from 0.000503123 +to 0.000503123
Heightened Def Con from 0.000503123 to 0.000503123
Heightened Def Con from 0.000503123 to 0.000503123
Heightened Def Con from 0.000503123 to 0.000503123
Heightened Def Con from 0.000503123 ++to 0.000503123
Heightened Def Con from 0.000503123 ++to 0.000503123
Heightened Def Con from 0.000503123 to 0.000503123
Heightened Def Con from 0.000503123 +to 0.000503123
Heightened Def Con from 0.000503123 to 0.000503123
Heightened Def Con from 0.000503123 to 0.000503123
Heightened Def Con from 0.000503123 to 0.000503123
Heightened Def Con from 0.000503123 +to 0.000503123
Heightened Def Con from 0.000503123 +to 0.000503123
Heightened Def Con from 0.000503123 to 0.000503123
Heightened Def Con from 0.000503123 +to 0.000503123
Heightened Def Con from 0.000503123 +to 0.000503123
Heightened Def Con from 0.000503123 to 0.000503123
Heightened Def Con from 0.000503123 to 0.000503123
Heightened Def Con from 0.000503123 to 0.000503123
Heightened Def Con from 0.000503123 to 0.000503123
Heightened Def Con from 0.000503123 to 0.000503123
Heightened Def Con from 0.000503123 to 0.000503123
Heightened Def Con from 0.000503123 to 0.000503123
Heightened Def Con from 0.000503123 to 0.000503123
Heightened Def Con from 0.000503123 +to 0.000503123
Heightened Def Con from 0.000503123 to 0.000503123
Heightened Def Con from 0.000503123 to 0.000503123
Heightened Def Con from 0.000503123 +++to 0.000503123
Heightened Def Con from 0.000503123 to 0.000503123
Heightened Def Con from 0.000503123 to 0.000503123
Heightened Def Con from 0.000503123 to 0.000503123
Heightened Def Con from 0.000503123 to 0.000503123
Heightened Def Con from 0.000503123 to 0.000503123
Heightened Def Con from 0.000503123 to 0.000503123
Heightened Def Con from 0.000503123 ++to 0.000503123
Heightened Def Con from 0.000503123 to 0.000503123
Heightened Def Con from 0.000503123 to 0.000503123
Heightened Def Con from 0.000503123 +to 0.000503123
Heightened Def Con from 0.000503123 ++to 0.000503123
Heightened Def Con from 0.000503123 to 0.000503123
Heightened Def Con from 0.000503123 +++to 0.000503123
Heightened Def Con from 0.000503123 +++to 0.000503123
Heightened Def Con from 0.000503123 to 0.000503123
Heightened Def Con from 0.000503123 to 0.000503123
Heightened Def Con from 0.000503123 to 0.000503123
Heightened Def Con from 0.000503123 +++to 0.000503123
Heightened Def Con from 0.000503123 to 0.000503123
Heightened Def Con from 0.000503123 ++to 0.000503123
Heightened Def Con from 0.000503123 to 0.000503123
Heightened Def Con from 0.000503123 +++to 0.000503123
Heightened Def Con from 0.000503123 ++to 0.000503123
Heightened Def Con from 0.000503123 to 0.000503123
Heightened Def Con from 0.000503123 +to 0.000503123
Heightened Def Con from 0.000503123 to 0.000503123
Heightened Def Con from 0.000503123 ++++to 0.000503123
Heightened Def Con from 0.000503123 ++to 0.000503123
Heightened Def Con from 0.000503123 to 0.000503123
Heightened Def Con from 0.000503123 ++to 0.000503123
Heightened Def Con from 0.000503123 to 0.000503123
Heightened Def Con from 0.000503123 to 0.000503123
Heightened Def Con from 0.000503123 +++to 0.000503123
Heightened Def Con from 0.000503123 to 0.000503123
Heightened Def Con from 0.000503123 ++++++to 0.000503123
Heightened Def Con from 0.000503123 to 0.000503123
Heightened Def Con from 0.000503123 to 0.000503123
Heightened Def Con from 0.000503123 +++to 0.000503123
Heightened Def Con from 0.000503123 to 0.000503123
Heightened Def Con from 0.000503123 +to 0.000503123
Heightened Def Con from 0.000503123 ++++to 0.000503123
Heightened Def Con from 0.000503123 to 0.000503123
Heightened Def Con from 0.000503123 to 0.000503123
Heightened Def Con from 0.000503123 to 0.000503123
Heightened Def Con from 0.000503123 to 0.000503123
Heightened Def Con from 0.000503123 +to 0.000503123
Heightened Def Con from 0.000503123 ++to 0.000503123
Heightened Def Con from 0.000503123 to 0.000503123
Heightened Def Con from 0.000503123 +to 0.000503123
Heightened Def Con from 0.000503123 to 0.000503123
Heightened Def Con from 0.000503123 to 0.000503123
Heightened Def Con from 0.000503123 to 0.000503123
Heightened Def Con from 0.000503123 to 0.000503123
Heightened Def Con from 0.000503123 +to 0.000503123
Heightened Def Con from 0.000503123 to 0.000503123
Heightened Def Con from 0.000503123 +to 0.000503123
Heightened Def Con from 0.000503123 ++++to 0.000503123
Heightened Def Con from 0.000503123 to 0.000503123
Heightened Def Con from 0.000503123 +to 0.000503123
Heightened Def Con from 0.000503123 ++to 0.000503123
Heightened Def Con from 0.000503123 to 0.000503123
Heightened Def Con from 0.000503123 ++to 0.000503123
Heightened Def Con from 0.000503123 +++to 0.000503123
Heightened Def Con from 0.000503123 ++to 0.000503123
Heightened Def Con from 0.000503123 to 0.000503123
Heightened Def Con from 0.000503123 to 0.000503123
Heightened Def Con from 0.000503123 to 0.000503123
Heightened Def Con from 0.000503123 +to 0.000503123
Heightened Def Con from 0.000503123 to 0.000503123
Heightened Def Con from 0.000503123 ++to 0.000503123
Heightened Def Con from 0.000503123 ++to 0.000503123
Heightened Def Con from 0.000503123 +to 0.000503123
Heightened Def Con from 0.000503123 to 0.000503123
Heightened Def Con from 0.000503123 +to 0.000503123
Heightened Def Con from 0.000503123 ++to 0.000503123
Heightened Def Con from 0.000503123 +++to 0.000503123
Heightened Def Con from 0.000503123 +to 0.000503123
Heightened Def Con from 0.000503123 to 0.000503123
Heightened Def Con from 0.000503123 +to 0.000503123
Heightened Def Con from 0.000503123 +to 0.000503123
Heightened Def Con from 0.000503123 to 0.000503123
Heightened Def Con from 0.000503123 to 0.000503123
Heightened Def Con from 0.000503123 +to 0.000503123
Heightened Def Con from 0.000503123 to 0.000503123
Heightened Def Con from 0.000503123 to 0.000503123
Heightened Def Con from 0.000503123 +to 0.000503123
Heightened Def Con from 0.000503123 to 0.000503123
Heightened Def Con from 0.000503123 ++to 0.000503123
Heightened Def Con from 0.000503123 to 0.000503123
Heightened Def Con from 0.000503123 to 0.000503123
Heightened Def Con from 0.000503123 ++to 0.000503123
Heightened Def Con from 0.000503123 +++to 0.000503123
Heightened Def Con from 0.000503123 to 0.000503123
Heightened Def Con from 0.000503123 +++to 0.000503123
Heightened Def Con from 0.000503123 +to 0.000503123
Heightened Def Con from 0.000503123 to 0.000503123
Heightened Def Con from 0.000503123 to 0.000503123
Heightened Def Con from 0.000503123 to 0.000503123
Heightened Def Con from 0.000503123 +to 0.000503123
Heightened Def Con from 0.000503123 to 0.000503123
Heightened Def Con from 0.000503123 ++to 0.000503123
Heightened Def Con from 0.000503123 to 0.000503123
Heightened Def Con from 0.000503123 +to 0.000503123
Heightened Def Con from 0.000503123 to 0.000503123
Heightened Def Con from 0.000503123 to 0.000503123
Heightened Def Con from 0.000503123 +to 0.000503123
Heightened Def Con from 0.000503123 to 0.000503123
Heightened Def Con from 0.000503123 to 0.000503123
Heightened Def Con from 0.000503123 to 0.000503123
Heightened Def Con from 0.000503123 +++to 0.000503123
Heightened Def Con from 0.000503123 +to 0.000503123
Heightened Def Con from 0.000503123 to 0.000503123
Heightened Def Con from 0.000503123 to 0.000503123
Heightened Def Con from 0.000503123 +to 0.000503123
Heightened Def Con from 0.000503123 to 0.000503123
Heightened Def Con from 0.000503123 ++++to 0.000503123
Heightened Def Con from 0.000503123 +to 0.000503123
Heightened Def Con from 0.000503123 +to 0.000503123
Heightened Def Con from 0.000503123 ++++to 0.000503123
Heightened Def Con from 0.000503123 to 0.000503123
Heightened Def Con from 0.000503123 to 0.000503123
Heightened Def Con from 0.000503123 +to 0.000503123
Heightened Def Con from 0.000503123 to 0.000503123
Heightened Def Con from 0.000503123 to 0.000503123
Heightened Def Con from 0.000503123 ++++to 0.000503123
Heightened Def Con from 0.000503123 to 0.000503123
Heightened Def Con from 0.000503123 ++to 0.000503123
Heightened Def Con from 0.000503123 +to 0.000503123
Heightened Def Con from 0.000503123 to 0.000503123
Heightened Def Con from 0.000503123 to 0.000503123
Heightened Def Con from 0.000503123 +to 0.000503123
Heightened Def Con from 0.000503123 to 0.000503123
Heightened Def Con from 0.000503123 ++to 0.000503123
Heightened Def Con from 0.000503123 +to 0.000503123
Heightened Def Con from 0.000503123 to 0.000503123
Heightened Def Con from 0.000503123 ++to 0.000503123
Heightened Def Con from 0.000503123 +to 0.000503123
Heightened Def Con from 0.000503123 to 0.000503123
Heightened Def Con from 0.000503123 to 0.000503123
Heightened Def Con from 0.000503123 ++to 0.000503123
Heightened Def Con from 0.000503123 ++++to 0.000503123
Heightened Def Con from 0.000503123 to 0.000503123
Heightened Def Con from 0.000503123 +++to 0.000503123
Heightened Def Con from 0.000503123 to 0.000503123
Heightened Def Con from 0.000503123 to 0.000503123
Heightened Def Con from 0.000503123 to 0.000503123
Heightened Def Con from 0.000503123 to 0.000503123
Heightened Def Con from 0.000503123 to 0.000503123
Heightened Def Con from 0.000503123 +++++to 0.000503123
Heightened Def Con from 0.000503123 +to 0.000503123
Heightened Def Con from 0.000503123 +++to 0.000503123
Heightened Def Con from 0.000503123 to 0.000503123
Heightened Def Con from 0.000503123 to 0.000503123
Heightened Def Con from 0.000503123 +++to 0.000503123
Heightened Def Con from 0.000503123 to 0.000503123
Heightened Def Con from 0.000503123 +++++to 0.000503123
Heightened Def Con from 0.000503123 to 0.000503123
Heightened Def Con from 0.000503123 +to 0.000503123
Heightened Def Con from 0.000503123 to 0.000503123
Heightened Def Con from 0.000503123 to 0.000503123
Heightened Def Con from 0.000503123 to 0.000503123
Heightened Def Con from 0.000503123 to 0.000503123
Heightened Def Con from 0.000503123 +++++++++to 0.000503123
Heightened Def Con from 0.000503123 to 0.000503123
Heightened Def Con from 0.000503123 to 0.000503123
Heightened Def Con from 0.000503123 ++++++to 0.000503123
Heightened Def Con from 0.000503123 +to 0.000503123
Heightened Def Con from 0.000503123 +++to 0.000503123
Heightened Def Con from 0.000503123 +to 0.000503123
Heightened Def Con from 0.000503123 +++to 0.000503123
Heightened Def Con from 0.000503123 +to 0.000503123
Heightened Def Con from 0.000503123 ++to 0.000503123
Heightened Def Con from 0.000503123 +++to 0.000503123
Heightened Def Con from 0.000503123 +to 0.000503123
Heightened Def Con from 0.000503123 ++++to 0.000503123
Heightened Def Con from 0.000503123 +++++++to 0.000503123
Heightened Def Con from 0.000503123 to 0.000503123
Heightened Def Con from 0.000503123 ++to 0.000503123
Heightened Def Con from 0.000503123 ++to 0.000503123
Heightened Def Con from 0.000503123 to 0.000503123
Heightened Def Con from 0.000503123 +to 0.000503123
Heightened Def Con from 0.000503123 +++to 0.000503123
Heightened Def Con from 0.000503123 +++to 0.000503123
Heightened Def Con from 0.000503123 +to 0.000503123
Heightened Def Con from 0.000503123 ++to 0.000503123
Heightened Def Con from 0.000503123 to 0.000503123
Heightened Def Con from 0.000503123 to 0.000503123
Heightened Def Con from 0.000503123 +to 0.000503123
Heightened Def Con from 0.000503123 to 0.000503123
Heightened Def Con from 0.000503123 +to 0.000503123
Heightened Def Con from 0.000503123 +to 0.000503123
Heightened Def Con from 0.000503123 to 0.000503123
Heightened Def Con from 0.000503123 ++to 0.000503123
Heightened Def Con from 0.000503123 to 0.000503123
Heightened Def Con from 0.000503123 +++to 0.000503123
Heightened Def Con from 0.000503123 +++++to 0.000503123
Heightened Def Con from 0.000503123 +++to 0.000503123
Heightened Def Con from 0.000503123 +to 0.000503123
Heightened Def Con from 0.000503123 ++to 0.000503123
Heightened Def Con from 0.000503123 ++to 0.000503123
Heightened Def Con from 0.000503123 +++to 0.000503123
Heightened Def Con from 0.000503123 to 0.000503123
Heightened Def Con from 0.000503123 to 0.000503123
Heightened Def Con from 0.000503123 ++to 0.000503123
Heightened Def Con from 0.000503123 to 0.000503123
Heightened Def Con from 0.000503123 to 0.000503123
Heightened Def Con from 0.000503123 to 0.000503123
Heightened Def Con from 0.000503123 to 0.000503123
Heightened Def Con from 0.000503123 to 0.000503123
Heightened Def Con from 0.000503123 to 0.000503123
Heightened Def Con from 0.000503123 ++to 0.000503123
Heightened Def Con from 0.000503123 to 0.000503123
Heightened Def Con from 0.000503123 to 0.000503123
Heightened Def Con from 0.000503123 ++to 0.000503123
Heightened Def Con from 0.000503123 ++to 0.000503123
Heightened Def Con from 0.000503123 to 0.000503123
Heightened Def Con from 0.000503123 +to 0.000503123
Heightened Def Con from 0.000503123 to 0.000503123
Heightened Def Con from 0.000503123 ++to 0.000503123
Heightened Def Con from 0.000503123 to 0.000503123
Heightened Def Con from 0.000503123 to 0.000503123
Heightened Def Con from 0.000503123 to 0.000503123
Heightened Def Con from 0.000503123 +to 0.000503123
Heightened Def Con from 0.000503123 +++to 0.000503123
Heightened Def Con from 0.000503123 +++to 0.000503123
Heightened Def Con from 0.000503123 to 0.000503123
Heightened Def Con from 0.000503123 +to 0.000503123
Heightened Def Con from 0.000503123 to 0.000503123
Heightened Def Con from 0.000503123 to 0.000503123
Heightened Def Con from 0.000503123 to 0.000503123
Heightened Def Con from 0.000503123 +to 0.000503123
Heightened Def Con from 0.000503123 to 0.000503123
Heightened Def Con from 0.000503123 to 0.000503123
Heightened Def Con from 0.000503123 to 0.000503123
Heightened Def Con from 0.000503123 to 0.000503123
Heightened Def Con from 0.000503123 to 0.000503123
Heightened Def Con from 0.000503123 ++to 0.000503123
Heightened Def Con from 0.000503123 ++to 0.000503123
Heightened Def Con from 0.000503123 ++to 0.000503123
Heightened Def Con from 0.000503123 ++to 0.000503123
Heightened Def Con from 0.000503123 to 0.000503123
Heightened Def Con from 0.000503123 ++to 0.000503123
Heightened Def Con from 0.000503123 to 0.000503123
Heightened Def Con from 0.000503123 to 0.000503123
Heightened Def Con from 0.000503123 +++to 0.000503123
Heightened Def Con from 0.000503123 +to 0.000503123
Heightened Def Con from 0.000503123 to 0.000503123
Heightened Def Con from 0.000503123 ++++to 0.000503123
Heightened Def Con from 0.000503123 +++to 0.000503123
Heightened Def Con from 0.000503123 +to 0.000503123
Heightened Def Con from 0.000503123 +++to 0.000503123
Heightened Def Con from 0.000503123 +to 0.000503123
Heightened Def Con from 0.000503123 to 0.000503123
Heightened Def Con from 0.000503123 +to 0.000503123
Heightened Def Con from 0.000503123 +to 0.000503123
Heightened Def Con from 0.000503123 +to 0.000503123
Heightened Def Con from 0.000503123 to 0.000503123
Heightened Def Con from 0.000503123 ++++++to 0.000503123
Heightened Def Con from 0.000503123 +++to 0.000503123
Heightened Def Con from 0.000503123 to 0.000503123
Heightened Def Con from 0.000503123 ++++to 0.000503123
Heightened Def Con from 0.000503123 to 0.000503123
Heightened Def Con from 0.000503123 ++++to 0.000503123
Heightened Def Con from 0.000503123 to 0.000503123
Heightened Def Con from 0.000503123 ++++to 0.000503123
Heightened Def Con from 0.000503123 +to 0.000503123
Heightened Def Con from 0.000503123 ++to 0.000503123
Heightened Def Con from 0.000503123 +++to 0.000503123
Heightened Def Con from 0.000503123 ++to 0.000503123
Heightened Def Con from 0.000503123 to 0.000503123
Heightened Def Con from 0.000503123 to 0.000503123
Heightened Def Con from 0.000503123 +to 0.000503123
Heightened Def Con from 0.000503123 ++to 0.000503123
Heightened Def Con from 0.000503123 to 0.000503123
Heightened Def Con from 0.000503123 to 0.000503123
Heightened Def Con from 0.000503123 +to 0.000503123
Heightened Def Con from 0.000503123 to 0.000503123
Heightened Def Con from 0.000503123 to 0.000503123
Heightened Def Con from 0.000503123 to 0.000503123
Heightened Def Con from 0.000503123 ++to 0.000503123
Heightened Def Con from 0.000503123 +to 0.000503123
Heightened Def Con from 0.000503123 +to 0.000503123
Heightened Def Con from 0.000503123 +to 0.000503123
Heightened Def Con from 0.000503123 +to 0.000503123
Heightened Def Con from 0.000503123 ++++to 0.000503123
Heightened Def Con from 0.000503123 ++to 0.000503123
Heightened Def Con from 0.000503123 ++to 0.000503123
Heightened Def Con from 0.000503123 to 0.000503123
Heightened Def Con from 0.000503123 +to 0.000503123
Heightened Def Con from 0.000503123 ++++++to 0.000503123
Heightened Def Con from 0.000503123 +++++++to 0.000503123
Heightened Def Con from 0.000503123 to 0.000503123
Heightened Def Con from 0.000503123 +++to 0.000503123
Heightened Def Con from 0.000503123 to 0.000503123
Heightened Def Con from 0.000503123 +++to 0.000503123
Heightened Def Con from 0.000503123 ++++to 0.000503123
Heightened Def Con from 0.000503123 to 0.000503123
Heightened Def Con from 0.000503123 ++to 0.000503123
Heightened Def Con from 0.000503123 +to 0.000503123
Heightened Def Con from 0.000503123 +to 0.000503123
Heightened Def Con from 0.000503123 to 0.000503123
Heightened Def Con from 0.000503123 to 0.000503123
Heightened Def Con from 0.000503123 to 0.000503123
Heightened Def Con from 0.000503123 to 0.000503123
Heightened Def Con from 0.000503123 ++to 0.000503123
Heightened Def Con from 0.000503123 to 0.000503123
Heightened Def Con from 0.000503123 +to 0.000503123
Heightened Def Con from 0.000503123 ++to 0.000503123
Heightened Def Con from 0.000503123 +++++to 0.000503123
Heightened Def Con from 0.000503123 to 0.000503123
Heightened Def Con from 0.000503123 ++to 0.000503123
Heightened Def Con from 0.000503123 +++to 0.000503123
Heightened Def Con from 0.000503123 to 0.000503123
Heightened Def Con from 0.000503123 ++to 0.000503123
Heightened Def Con from 0.000503123 +to 0.000503123
Heightened Def Con from 0.000503123 to 0.000503123
Heightened Def Con from 0.000503123 +to 0.000503123
Heightened Def Con from 0.000503123 to 0.000503123
Heightened Def Con from 0.000503123 +to 0.000503123
Heightened Def Con from 0.000503123 +to 0.000503123
Heightened Def Con from 0.000503123 +to 0.000503123
Heightened Def Con from 0.000503123 ++to 0.000503123
Heightened Def Con from 0.000503123 +to 0.000503123
Heightened Def Con from 0.000503123 +to 0.000503123
Heightened Def Con from 0.000503123 ++++to 0.000503123
Heightened Def Con from 0.000503123 ++++to 0.000503123
Heightened Def Con from 0.000503123 ++to 0.000503123
Heightened Def Con from 0.000503123 to 0.000503123
Heightened Def Con from 0.000503123 to 0.000503123
Heightened Def Con from 0.000503123 ++++to 0.000503123
Heightened Def Con from 0.000503123 ++to 0.000503123
Heightened Def Con from 0.000503123 +to 0.000503123
Heightened Def Con from 0.000503123 +to 0.000503123
Heightened Def Con from 0.000503123 to 0.000503123
Heightened Def Con from 0.000503123 to 0.000503123
Heightened Def Con from 0.000503123 +to 0.000503123
Heightened Def Con from 0.000503123 to 0.000503123
Heightened Def Con from 0.000503123 to 0.000503123
Heightened Def Con from 0.000503123 to 0.000503123
Heightened Def Con from 0.000503123 to 0.000503123
Heightened Def Con from 0.000503123 ++to 0.000503123
Heightened Def Con from 0.000503123 to 0.000503123
Heightened Def Con from 0.000503123 +++to 0.000503123
Heightened Def Con from 0.000503123 to 0.000503123
Heightened Def Con from 0.000503123 +to 0.000503123
Heightened Def Con from 0.000503123 +to 0.000503123
Heightened Def Con from 0.000503123 to 0.000503123
Heightened Def Con from 0.000503123 to 0.000503123
Heightened Def Con from 0.000503123 ++++to 0.000503123
Heightened Def Con from 0.000503123 to 0.000503123
Heightened Def Con from 0.000503123 +to 0.000503123
Heightened Def Con from 0.000503123 +++to 0.000503123
Heightened Def Con from 0.000503123 to 0.000503123
Heightened Def Con from 0.000503123 ++to 0.000503123
Heightened Def Con from 0.000503123 +++to 0.000503123
Heightened Def Con from 0.000503123 to 0.000503123
Heightened Def Con from 0.000503123 +to 0.000503123
Heightened Def Con from 0.000503123 to 0.000503123
Heightened Def Con from 0.000503123 +to 0.000503123
Heightened Def Con from 0.000503123 to 0.000503123
Heightened Def Con from 0.000503123 +to 0.000503123
Heightened Def Con from 0.000503123 to 0.000503123
Heightened Def Con from 0.000503123 to 0.000503123
Heightened Def Con from 0.000503123 +to 0.000503123
Heightened Def Con from 0.000503123 to 0.000503123
Heightened Def Con from 0.000503123 +to 0.000503123
Heightened Def Con from 0.000503123 to 0.000503123
Heightened Def Con from 0.000503123 ++++to 0.000503123
Heightened Def Con from 0.000503123 to 0.000503123
Heightened Def Con from 0.000503123 ++to 0.000503123
Heightened Def Con from 0.000503123 +++to 0.000503123
Heightened Def Con from 0.000503123 to 0.000503123
Heightened Def Con from 0.000503123 to 0.000503123
Heightened Def Con from 0.000503123 +to 0.000503123
Heightened Def Con from 0.000503123 +++++to 0.000503123
Heightened Def Con from 0.000503123 to 0.000503123
Heightened Def Con from 0.000503123 ++to 0.000503123
Heightened Def Con from 0.000503123 ++to 0.000503123
Heightened Def Con from 0.000503123 to 0.000503123
Heightened Def Con from 0.000503123 +to 0.000503123
Heightened Def Con from 0.000503123 +to 0.000503123
Heightened Def Con from 0.000503123 +to 0.000503123
Heightened Def Con from 0.000503123 +++to 0.000503123
Heightened Def Con from 0.000503123 to 0.000503123
Heightened Def Con from 0.000503123 to 0.000503123
Heightened Def Con from 0.000503123 to 0.000503123
Heightened Def Con from 0.000503123 ++++to 0.000503123
Heightened Def Con from 0.000503123 +++to 0.000503123
Heightened Def Con from 0.000503123 +to 0.000503123
Heightened Def Con from 0.000503123 +to 0.000503123
Heightened Def Con from 0.000503123 to 0.000503123
Heightened Def Con from 0.000503123 to 0.000503123
Heightened Def Con from 0.000503123 to 0.000503123
Heightened Def Con from 0.000503123 to 0.000503123
Heightened Def Con from 0.000503123 +++to 0.000503123
Heightened Def Con from 0.000503123 +to 0.000503123
Heightened Def Con from 0.000503123 +++++++to 0.000503123
Heightened Def Con from 0.000503123 ++to 0.000503123
Heightened Def Con from 0.000503123 to 0.000503123
Heightened Def Con from 0.000503123 to 0.000503123
Heightened Def Con from 0.000503123 ++++to 0.000503123
Heightened Def Con from 0.000503123 ++to 0.000503123
Heightened Def Con from 0.000503123 +to 0.000503123
Heightened Def Con from 0.000503123 +to 0.000503123
Heightened Def Con from 0.000503123 to 0.000503123
Heightened Def Con from 0.000503123 to 0.000503123
Heightened Def Con from 0.000503123 +to 0.000503123
Heightened Def Con from 0.000503123 +to 0.000503123
Heightened Def Con from 0.000503123 to 0.000503123
Heightened Def Con from 0.000503123 +to 0.000503123
Heightened Def Con from 0.000503123 to 0.000503123
Heightened Def Con from 0.000503123 to 0.000503123
Heightened Def Con from 0.000503123 to 0.000503123
Heightened Def Con from 0.000503123 +to 0.000503123
Heightened Def Con from 0.000503123 ++to 0.000503123
Heightened Def Con from 0.000503123 to 0.000503123
Heightened Def Con from 0.000503123 ++to 0.000503123
Heightened Def Con from 0.000503123 to 0.000503123
Heightened Def Con from 0.000503123 to 0.000503123
Heightened Def Con from 0.000503123 +++to 0.000503123
Heightened Def Con from 0.000503123 +++to 0.000503123
Heightened Def Con from 0.000503123 to 0.000503123
Heightened Def Con from 0.000503123 to 0.000503123
Heightened Def Con from 0.000503123 +++++to 0.000503123
Heightened Def Con from 0.000503123 to 0.000503123
Heightened Def Con from 0.000503123 to 0.000503123
Heightened Def Con from 0.000503123 to 0.000503123
Heightened Def Con from 0.000503123 +to 0.000503123
Heightened Def Con from 0.000503123 +to 0.000503123
Heightened Def Con from 0.000503123 +to 0.000503123
Heightened Def Con from 0.000503123 +to 0.000503123
Heightened Def Con from 0.000503123 to 0.000503123
Heightened Def Con from 0.000503123 to 0.000503123
Heightened Def Con from 0.000503123 to 0.000503123
Heightened Def Con from 0.000503123 to 0.000503123
Heightened Def Con from 0.000503123 to 0.000503123
Heightened Def Con from 0.000503123 +to 0.000503123
Heightened Def Con from 0.000503123 to 0.000503123
Heightened Def Con from 0.000503123 +to 0.000503123
Heightened Def Con from 0.000503123 to 0.000503123
Heightened Def Con from 0.000503123 +to 0.000503123
Heightened Def Con from 0.000503123 +++++to 0.000503123
Heightened Def Con from 0.000503123 +to 0.000503123
Heightened Def Con from 0.000503123 ++to 0.000503123
Heightened Def Con from 0.000503123 to 0.000503123
Heightened Def Con from 0.000503123 to 0.000503123
Heightened Def Con from 0.000503123 to 0.000503123
Heightened Def Con from 0.000503123 to 0.000503123
Heightened Def Con from 0.000503123 +to 0.000503123
Heightened Def Con from 0.000503123 +to 0.000503123
Heightened Def Con from 0.000503123 ++to 0.000503123
Heightened Def Con from 0.000503123 to 0.000503123
Heightened Def Con from 0.000503123 to 0.000503123
Heightened Def Con from 0.000503123 to 0.000503123
Heightened Def Con from 0.000503123 to 0.000503123
Heightened Def Con from 0.000503123 +to 0.000503123
Heightened Def Con from 0.000503123 +to 0.000503123
Heightened Def Con from 0.000503123 +to 0.000503123
Heightened Def Con from 0.000503123 +to 0.000503123
Heightened Def Con from 0.000503123 to 0.000503123
Heightened Def Con from 0.000503123 +to 0.000503123
Heightened Def Con from 0.000503123 to 0.000503123
Heightened Def Con from 0.000503123 +to 0.000503123
Heightened Def Con from 0.000503123 to 0.000503123
Heightened Def Con from 0.000503123 to 0.000503123
Heightened Def Con from 0.000503123 to 0.000503123
Heightened Def Con from 0.000503123 +to 0.000503123
Heightened Def Con from 0.000503123 to 0.000503123
Heightened Def Con from 0.000503123 +to 0.000503123
Heightened Def Con from 0.000503123 ++++to 0.000503123
Heightened Def Con from 0.000503123 to 0.000503123
Heightened Def Con from 0.000503123 +to 0.000503123
Heightened Def Con from 0.000503123 to 0.000503123
Heightened Def Con from 0.000503123 +to 0.000503123
Heightened Def Con from 0.000503123 +to 0.000503123
Heightened Def Con from 0.000503123 to 0.000503123
Heightened Def Con from 0.000503123 to 0.000503123
Heightened Def Con from 0.000503123 +++to 0.000503123
Heightened Def Con from 0.000503123 +to 0.000503123
Heightened Def Con from 0.000503123 to 0.000503123
Heightened Def Con from 0.000503123 to 0.000503123
Heightened Def Con from 0.000503123 +to 0.000503123
Heightened Def Con from 0.000503123 to 0.000503123
Heightened Def Con from 0.000503123 to 0.000503123
Heightened Def Con from 0.000503123 +to 0.000503123
Heightened Def Con from 0.000503123 +to 0.000503123
Heightened Def Con from 0.000503123 to 0.000503123
Heightened Def Con from 0.000503123 +to 0.000503123
Heightened Def Con from 0.000503123 +to 0.000503123
Heightened Def Con from 0.000503123 +to 0.000503123
Heightened Def Con from 0.000503123 to 0.000503123
Heightened Def Con from 0.000503123 +to 0.000503123
Heightened Def Con from 0.000503123 +to 0.000503123
Heightened Def Con from 0.000503123 to 0.000503123
Heightened Def Con from 0.000503123 to 0.000503123
Heightened Def Con from 0.000503123 ++to 0.000503123
Heightened Def Con from 0.000503123 +to 0.000503123
Heightened Def Con from 0.000503123 to 0.000503123
Heightened Def Con from 0.000503123 to 0.000503123
Heightened Def Con from 0.000503123 to 0.000503123
Heightened Def Con from 0.000503123 to 0.000503123
Heightened Def Con from 0.000503123 to 0.000503123
Heightened Def Con from 0.000503123 to 0.000503123
Heightened Def Con from 0.000503123 to 0.000503123
Heightened Def Con from 0.000503123 to 0.000503123
Heightened Def Con from 0.000503123 +to 0.000503123
Heightened Def Con from 0.000503123 to 0.000503123
Heightened Def Con from 0.000503123 to 0.000503123
Heightened Def Con from 0.000503123 to 0.000503123
Heightened Def Con from 0.000503123 to 0.000503123
Heightened Def Con from 0.000503123 to 0.000503123
Heightened Def Con from 0.000503123 to 0.000503123
Heightened Def Con from 0.000503123 +to 0.000503123
Heightened Def Con from 0.000503123 to 0.000503123
Heightened Def Con from 0.000503123 to 0.000503123
Heightened Def Con from 0.000503123 +to 0.000503123
Heightened Def Con from 0.000503123 to 0.000503123
Heightened Def Con from 0.000503123 +++to 0.000503123
Heightened Def Con from 0.000503123 to 0.000503123
Heightened Def Con from 0.000503123 to 0.000503123
Heightened Def Con from 0.000503123 to 0.000503123
Heightened Def Con from 0.000503123 to 0.000503123
Heightened Def Con from 0.000503123 to 0.000503123
Heightened Def Con from 0.000503123 ++++to 0.000503123
Heightened Def Con from 0.000503123 to 0.000503123
Heightened Def Con from 0.000503123 to 0.000503123
Heightened Def Con from 0.000503123 to 0.000503123
Heightened Def Con from 0.000503123 ++to 0.000503123
Heightened Def Con from 0.000503123 to 0.000503123
Heightened Def Con from 0.000503123 to 0.000503123
Heightened Def Con from 0.000503123 to 0.000503123
Heightened Def Con from 0.000503123 to 0.000503123
Heightened Def Con from 0.000503123 to 0.000503123
Heightened Def Con from 0.000503123 to 0.000503123
Heightened Def Con from 0.000503123 to 0.000503123
Heightened Def Con from 0.000503123 to 0.000503123
Heightened Def Con from 0.000503123 to 0.000503123
Heightened Def Con from 0.000503123 to 0.000503123
Heightened Def Con from 0.000503123 to 0.000503123
Heightened Def Con from 0.000503123 to 0.000503123
Heightened Def Con from 0.000503123 to 0.000503123
Heightened Def Con from 0.000503123 +to 0.000503123
Heightened Def Con from 0.000503123 to 0.000503123
Heightened Def Con from 0.000503123 to 0.000503123
Heightened Def Con from 0.000503123 to 0.000503123
Heightened Def Con from 0.000503123 to 0.000503123
Heightened Def Con from 0.000503123 to 0.000503123
Heightened Def Con from 0.000503123 to 0.000503123
Heightened Def Con from 0.000503123 to 0.000503123
Heightened Def Con from 0.000503123 to 0.000503123
Heightened Def Con from 0.000503123 +to 0.000503123
Heightened Def Con from 0.000503123 +++to 0.000503123
Heightened Def Con from 0.000503123 +to 0.000503123
Heightened Def Con from 0.000503123 to 0.000503123
Heightened Def Con from 0.000503123 to 0.000503123
Heightened Def Con from 0.000503123 ++++++++to 0.000503123
Heightened Def Con from 0.000503123 ++++++++++to 0.000503123
Heightened Def Con from 0.000503123 ++++++++++to 0.000503123
Heightened Def Con from 0.000503123 +to 0.000503123
Heightened Def Con from 0.000503123 to 0.000503123
Heightened Def Con from 0.000503123 to 0.000503123
Heightened Def Con from 0.000503123 +++++++++++to 0.000503123
Heightened Def Con from 0.000503123 ++++++++++to 0.000503123
Heightened Def Con from 0.000503123 ++to 0.000503123
Heightened Def Con from 0.000503123 ++++++++++to 0.000503123
Heightened Def Con from 0.000503123 ++++++++++to 0.000503123
Heightened Def Con from 0.000503123 +++++++++to 0.000503123
Heightened Def Con from 0.000503123 ++++++++++to 0.000503123
Heightened Def Con from 0.000503123 +++++++to 0.000503123
Heightened Def Con from 0.000503123 +to 0.000503123
Heightened Def Con from 0.000503123 +to 0.000503123
Heightened Def Con from 0.000503123 ++++++++++to 0.000503123
Heightened Def Con from 0.000503123 +++++++++++to 0.000503123
Heightened Def Con from 0.000503123 to 0.000503123
Heightened Def Con from 0.000503123 +++++to 0.000503123
Heightened Def Con from 0.000503123 ++++++++++to 0.000503123
Heightened Def Con from 0.000503123 ++++++to 0.000503123
Heightened Def Con from 0.000503123 to 0.000503123
Heightened Def Con from 0.000503123 to 0.000503123
Heightened Def Con from 0.000503123 +++++++++++to 0.000503123
Heightened Def Con from 0.000503123 to 0.000503123
Heightened Def Con from 0.000503123 +++++++++to 0.000503123
Heightened Def Con from 0.000503123 +to 0.000503123
Heightened Def Con from 0.000503123 +++++++++++to 0.000503123
Heightened Def Con from 0.000503123 +++++++++++to 0.000503123
Heightened Def Con from 0.000503123 +++++++++++to 0.000503123
Heightened Def Con from 0.000503123 +++++++to 0.000503123
Heightened Def Con from 0.000503123 +++++++++++to 0.000503123
Heightened Def Con from 0.000503123 +++++++++to 0.000503123
Heightened Def Con from 0.000503123 +to 0.000503123
Heightened Def Con from 0.000503123 ++++++to 0.000503123
Heightened Def Con from 0.000503123 +to 0.000503123
Heightened Def Con from 0.000503123 +to 0.000503123
Heightened Def Con from 0.000503123 +++++++++++to 0.000503123
Heightened Def Con from 0.000503123 to 0.000503123
Heightened Def Con from 0.000503123 +++++++++++to 0.000503123
Heightened Def Con from 0.000503123 to 0.000503123
Heightened Def Con from 0.000503123 ++++++++to 0.000503123
Heightened Def Con from 0.000503123 ++to 0.000503123
Heightened Def Con from 0.000503123 ++++++++to 0.000503123
Heightened Def Con from 0.000503123 +++++++to 0.000503123
Heightened Def Con from 0.000503123 ++++++++++to 0.000503123
Heightened Def Con from 0.000503123 to 0.000503123
Heightened Def Con from 0.000503123 ++++++++to 0.000503123
Heightened Def Con from 0.000503123 +++++++++to 0.000503123
Heightened Def Con from 0.000503123 to 0.000503123
Heightened Def Con from 0.000503123 ++++++++to 0.000503123
Heightened Def Con from 0.000503123 to 0.000503123
Heightened Def Con from 0.000503123 ++++++++to 0.000503123
Heightened Def Con from 0.000503123 ++++to 0.000503123
Heightened Def Con from 0.000503123 to 0.000503123
Heightened Def Con from 0.000503123 to 0.000503123
Heightened Def Con from 0.000503123 to 0.000503123
Heightened Def Con from 0.000503123 ++++++++to 0.000503123
Heightened Def Con from 0.000503123 +to 0.000503123
Heightened Def Con from 0.000503123 ++++++++++to 0.000503123
Heightened Def Con from 0.000503123 +++++++++++to 0.000503123
Heightened Def Con from 0.000503123 ++++++++++to 0.000503123
Heightened Def Con from 0.000503123 +++++++++to 0.000503123
Heightened Def Con from 0.000503123 to 0.000503123
Heightened Def Con from 0.000503123 +++++++++++to 0.000503123
Heightened Def Con from 0.000503123 +++++++++to 0.000503123
Heightened Def Con from 0.000503123 ++++++++++to 0.000503123
Heightened Def Con from 0.000503123 ++++++++to 0.000503123
Heightened Def Con from 0.000503123 +to 0.000503123
Heightened Def Con from 0.000503123 +++++++++++to 0.000503123
Heightened Def Con from 0.000503123 ++to 0.000503123
Heightened Def Con from 0.000503123 to 0.000503123
Heightened Def Con from 0.000503123 to 0.000503123
Heightened Def Con from 0.000503123 +++++++++to 0.000503123
Heightened Def Con from 0.000503123 +++++++++++to 0.000503123
Heightened Def Con from 0.000503123 ++++++++to 0.000503123
Heightened Def Con from 0.000503123 ++to 0.000503123
Heightened Def Con from 0.000503123 +++++++++++to 0.000503123
Heightened Def Con from 0.000503123 +to 0.000503123
Heightened Def Con from 0.000503123 ++++++++to 0.000503123
Heightened Def Con from 0.000503123 to 0.000503123
Heightened Def Con from 0.000503123 +to 0.000503123
Heightened Def Con from 0.000503123 ++++++++++to 0.000503123
Heightened Def Con from 0.000503123 ++++++++to 0.000503123
Heightened Def Con from 0.000503123 ++to 0.000503123
Heightened Def Con from 0.000503123 +++++++++++to 0.000503123
Heightened Def Con from 0.000503123 +++++++++++to 0.000503123
Heightened Def Con from 0.000503123 ++++++++to 0.000503123
Heightened Def Con from 0.000503123 +++++++to 0.000503123
Heightened Def Con from 0.000503123 +++++++++++to 0.000503123
Heightened Def Con from 0.000503123 ++++++++to 0.000503123
Heightened Def Con from 0.000503123 +++++++to 0.000503123
Heightened Def Con from 0.000503123 ++++++++++to 0.000503123
Heightened Def Con from 0.000503123 to 0.000503123
Heightened Def Con from 0.000503123 +++++++++to 0.000503123
Heightened Def Con from 0.000503123 +++++++++to 0.000503123
Heightened Def Con from 0.000503123 +++++++++to 0.000503123
Heightened Def Con from 0.000503123 +++++++++to 0.000503123
Heightened Def Con from 0.000503123 +++++++++++to 0.000503123
Heightened Def Con from 0.000503123 +++++++to 0.000503123
Heightened Def Con from 0.000503123 to 0.000503123
Heightened Def Con from 0.000503123 +to 0.000503123
Heightened Def Con from 0.000503123 to 0.000503123
Heightened Def Con from 0.000503123 to 0.000503123
Heightened Def Con from 0.000503123 to 0.000503123
Heightened Def Con from 0.000503123 to 0.000503123
Heightened Def Con from 0.000503123 ++++++++++to 0.000503123
Heightened Def Con from 0.000503123 +++++++++++to 0.000503123
Heightened Def Con from 0.000503123 +to 0.000503123
Heightened Def Con from 0.000503123 +++to 0.000503123
Heightened Def Con from 0.000503123 +++++++++++to 0.000503123
Heightened Def Con from 0.000503123 +++++++++++to 0.000503123
Heightened Def Con from 0.000503123 ++to 0.000503123
Heightened Def Con from 0.000503123 to 0.000503123
Heightened Def Con from 0.000503123 ++++++to 0.000503123
Heightened Def Con from 0.000503123 to 0.000503123
Heightened Def Con from 0.000503123 +++to 0.000503123
Heightened Def Con from 0.000503123 to 0.000503123
Heightened Def Con from 0.000503123 +++to 0.000503123
Heightened Def Con from 0.000503123 +++to 0.000503123
Heightened Def Con from 0.000503123 to 0.000503123
Heightened Def Con from 0.000503123 ++to 0.000503123
Heightened Def Con from 0.000503123 ++++++++++to 0.000503123
Heightened Def Con from 0.000503123 ++++++++++to 0.000503123
Heightened Def Con from 0.000503123 ++++++++++to 0.000503123
Heightened Def Con from 0.000503123 +++++++++++to 0.000503123
Heightened Def Con from 0.000503123 ++++++++to 0.000503123
Heightened Def Con from 0.000503123 ++to 0.000503123
Heightened Def Con from 0.000503123 to 0.000503123
Heightened Def Con from 0.000503123 to 0.000503123
Heightened Def Con from 0.000503123 to 0.000503123
Heightened Def Con from 0.000503123 +to 0.000503123
Heightened Def Con from 0.000503123 +++to 0.000503123
Heightened Def Con from 0.000503123 ++to 0.000503123
Heightened Def Con from 0.000503123 ++to 0.000503123
Heightened Def Con from 0.000503123 ++++++++++to 0.000503123
Heightened Def Con from 0.000503123 +++++++++++to 0.000503123
Heightened Def Con from 0.000503123 +++++++++to 0.000503123
Heightened Def Con from 0.000503123 ++++++++++to 0.000503123
Heightened Def Con from 0.000503123 +++++++to 0.000503123
Heightened Def Con from 0.000503123 ++to 0.000503123
Heightened Def Con from 0.000503123 ++++to 0.000503123
Heightened Def Con from 0.000503123 to 0.000503123
Heightened Def Con from 0.000503123 ++++++to 0.000503123
Heightened Def Con from 0.000503123 ++++++++to 0.000503123
Heightened Def Con from 0.000503123 ++++++++to 0.000503123
Heightened Def Con from 0.000503123 +++++++to 0.000503123
Heightened Def Con from 0.000503123 +++++++++++to 0.000503123
Heightened Def Con from 0.000503123 +to 0.000503123
Heightened Def Con from 0.000503123 ++++to 0.000503123
Heightened Def Con from 0.000503123 +++++++++++to 0.000503123
Heightened Def Con from 0.000503123 +++to 0.000503123
Heightened Def Con from 0.000503123 to 0.000503123
Heightened Def Con from 0.000503123 to 0.000503123
Heightened Def Con from 0.000503123 +++to 0.000503123
Heightened Def Con from 0.000503123 ++to 0.000503123
Heightened Def Con from 0.000503123 +++++++++++to 0.000503123
Heightened Def Con from 0.000503123 +++to 0.000503123
Heightened Def Con from 0.000503123 to 0.000503123
Heightened Def Con from 0.000503123 ++++++++++to 0.000503123
Heightened Def Con from 0.000503123 +++++++++to 0.000503123
Heightened Def Con from 0.000503123 to 0.000503123
Heightened Def Con from 0.000503123 +++++++++to 0.000503123
Heightened Def Con from 0.000503123 +to 0.000503123
Heightened Def Con from 0.000503123 +++to 0.000503123
Heightened Def Con from 0.000503123 to 0.000503123
Heightened Def Con from 0.000503123 ++++++++to 0.000503123
Heightened Def Con from 0.000503123 ++++++++to 0.000503123
Heightened Def Con from 0.000503123 +++to 0.000503123
Heightened Def Con from 0.000503123 +++to 0.000503123
Heightened Def Con from 0.000503123 ++++++++++to 0.000503123
Heightened Def Con from 0.000503123 +++++++++to 0.000503123
Heightened Def Con from 0.000503123 +++to 0.000503123
Heightened Def Con from 0.000503123 ++++to 0.000503123
Heightened Def Con from 0.000503123 to 0.000503123
Heightened Def Con from 0.000503123 to 0.000503123
Heightened Def Con from 0.000503123 to 0.000503123
Heightened Def Con from 0.000503123 ++to 0.000503123
Heightened Def Con from 0.000503123 +++++++++++to 0.000503123
Heightened Def Con from 0.000503123 +++++++++++to 0.000503123
Heightened Def Con from 0.000503123 ++++++++++to 0.000503123
Heightened Def Con from 0.000503123 ++++++++++to 0.000503123
Heightened Def Con from 0.000503123 ++++++++to 0.000503123
Heightened Def Con from 0.000503123 +++++++++to 0.000503123
Heightened Def Con from 0.000503123 +++++++++++to 0.000503123
Heightened Def Con from 0.000503123 ++to 0.000503123
Heightened Def Con from 0.000503123 ++++++++++to 0.000503123
Heightened Def Con from 0.000503123 +++++++++to 0.000503123
Heightened Def Con from 0.000503123 +++to 0.000503123
Heightened Def Con from 0.000503123 to 0.000503123
Heightened Def Con from 0.000503123 ++to 0.000503123
Heightened Def Con from 0.000503123 +++++++++to 0.000503123
Heightened Def Con from 0.000503123 +++++++++++to 0.000503123
Heightened Def Con from 0.000503123 +++++++++to 0.000503123
Heightened Def Con from 0.000503123 ++++++++to 0.000503123
Heightened Def Con from 0.000503123 ++++++++++to 0.000503123
Heightened Def Con from 0.000503123 +++++++++to 0.000503123
Heightened Def Con from 0.000503123 +++++++++to 0.000503123
Heightened Def Con from 0.000503123 ++++++++to 0.000503123
Heightened Def Con from 0.000503123 ++++++++to 0.000503123
Heightened Def Con from 0.000503123 +++++++to 0.000503123
Heightened Def Con from 0.000503123 +++++to 0.000503123
Heightened Def Con from 0.000503123 +++to 0.000503123
Heightened Def Con from 0.000503123 +++++to 0.000503123
Heightened Def Con from 0.000503123 +++to 0.000503123
Heightened Def Con from 0.000503123 +++to 0.000503123
Heightened Def Con from 0.000503123 +++to 0.000503123
Heightened Def Con from 0.000503123 to 0.000503123
Heightened Def Con from 0.000503123 ++++++++to 0.000503123
Heightened Def Con from 0.000503123 to 0.000503123
Heightened Def Con from 0.000503123 to 0.000503123
Heightened Def Con from 0.000503123 ++++++++++to 0.000503123
Heightened Def Con from 0.000503123 +++++++++to 0.000503123
Heightened Def Con from 0.000503123 ++to 0.000503123
Heightened Def Con from 0.000503123 to 0.000503123
Heightened Def Con from 0.000503123 ++to 0.000503123
Heightened Def Con from 0.000503123 +++++++++++to 0.000503123
Heightened Def Con from 0.000503123 ++++++++to 0.000503123
Heightened Def Con from 0.000503123 ++to 0.000503123
Heightened Def Con from 0.000503123 +++++++++to 0.000503123
Heightened Def Con from 0.000503123 +to 0.000503123
Heightened Def Con from 0.000503123 ++++to 0.000503123
Heightened Def Con from 0.000503123 +++++++++++to 0.000503123
Heightened Def Con from 0.000503123 ++++++++to 0.000503123
Heightened Def Con from 0.000503123 ++++++++to 0.000503123
Heightened Def Con from 0.000503123 +++++++++to 0.000503123
Heightened Def Con from 0.000503123 ++++to 0.000503123
Heightened Def Con from 0.000503123 ++++to 0.000503123
Heightened Def Con from 0.000503123 +++++++++++to 0.000503123
Heightened Def Con from 0.000503123 ++to 0.000503123
Heightened Def Con from 0.000503123 ++++to 0.000503123
Heightened Def Con from 0.000503123 to 0.000503123
Heightened Def Con from 0.000503123 ++++++++++to 0.000503123
Heightened Def Con from 0.000503123 +++++to 0.000503123
Heightened Def Con from 0.000503123 +++++++++++to 0.000503123
Heightened Def Con from 0.000503123 +to 0.000503123
Heightened Def Con from 0.000503123 +to 0.000503123
Heightened Def Con from 0.000503123 ++++++++to 0.000503123
Heightened Def Con from 0.000503123 +++to 0.000503123
Heightened Def Con from 0.000503123 ++++to 0.000503123
Heightened Def Con from 0.000503123 +++++to 0.000503123
Heightened Def Con from 0.000503123 +++++to 0.000503123
Heightened Def Con from 0.000503123 ++++++++to 0.000503123
Heightened Def Con from 0.000503123 to 0.000503123
Heightened Def Con from 0.000503123 to 0.000503123
Heightened Def Con from 0.000503123 +++to 0.000503123
Heightened Def Con from 0.000503123 +++++++++to 0.000503123
Heightened Def Con from 0.000503123 +++to 0.000503123
Heightened Def Con from 0.000503123 +++to 0.000503123
Heightened Def Con from 0.000503123 to 0.000503123
Heightened Def Con from 0.000503123 ++++++++to 0.000503123
Heightened Def Con from 0.000503123 ++++++++++to 0.000503123
Heightened Def Con from 0.000503123 +to 0.000503123
Heightened Def Con from 0.000503123 ++to 0.000503123
Heightened Def Con from 0.000503123 ++++++++++to 0.000503123
Heightened Def Con from 0.000503123 ++++++++to 0.000503123
Heightened Def Con from 0.000503123 +to 0.000503123
Heightened Def Con from 0.000503123 +++to 0.000503123
Heightened Def Con from 0.000503123 to 0.000503123
Heightened Def Con from 0.000503123 +++++++++to 0.000503123
Heightened Def Con from 0.000503123 +++to 0.000503123
Heightened Def Con from 0.000503123 ++to 0.000503123
Heightened Def Con from 0.000503123 +++++++++++to 0.000503123
Heightened Def Con from 0.000503123 to 0.000503123
Heightened Def Con from 0.000503123 +++++++++to 0.000503123
Heightened Def Con from 0.000503123 +++++++++to 0.000503123
Heightened Def Con from 0.000503123 ++++++++to 0.000503123
Heightened Def Con from 0.000503123 ++to 0.000503123
Heightened Def Con from 0.000503123 ++++++++++to 0.000503123
Heightened Def Con from 0.000503123 +++++to 0.000503123
Heightened Def Con from 0.000503123 ++++++++++to 0.000503123
Heightened Def Con from 0.000503123 ++++to 0.000503123
Heightened Def Con from 0.000503123 +++++++++to 0.000503123
Heightened Def Con from 0.000503123 +++++to 0.000503123
Heightened Def Con from 0.000503123 +++++to 0.000503123
Heightened Def Con from 0.000503123 ++to 0.000503123
Heightened Def Con from 0.000503123 ++++++++to 0.000503123
Heightened Def Con from 0.000503123 +++++++++++to 0.000503123
Heightened Def Con from 0.000503123 ++++++++to 0.000503123
Heightened Def Con from 0.000503123 ++++to 0.000503123
Heightened Def Con from 0.000503123 +++to 0.000503123
Heightened Def Con from 0.000503123 ++++to 0.000503123
Heightened Def Con from 0.000503123 ++++to 0.000503123
Heightened Def Con from 0.000503123 +++++++++++to 0.000503123
Heightened Def Con from 0.000503123 ++++to 0.000503123
Heightened Def Con from 0.000503123 +++to 0.000503123
Heightened Def Con from 0.000503123 ++++++++to 0.000503123
Heightened Def Con from 0.000503123 +++++++++to 0.000503123
Heightened Def Con from 0.000503123 +++++++++++to 0.000503123
Heightened Def Con from 0.000503123 +++++++++++to 0.000503123
Heightened Def Con from 0.000503123 +++++++++to 0.000503123
Heightened Def Con from 0.000503123 +++++to 0.000503123
Heightened Def Con from 0.000503123 +to 0.000503123
Heightened Def Con from 0.000503123 to 0.000503123
Heightened Def Con from 0.000503123 +++++to 0.000503123
Heightened Def Con from 0.000503123 ++++to 0.000503123
Heightened Def Con from 0.000503123 ++++to 0.000503123
Heightened Def Con from 0.000503123 ++++to 0.000503123
Heightened Def Con from 0.000503123 +++++++++++to 0.000503123
Heightened Def Con from 0.000503123 ++++++to 0.000503123
Heightened Def Con from 0.000503123 ++++++to 0.000503123
Heightened Def Con from 0.000503123 ++++to 0.000503123
Heightened Def Con from 0.000503123 ++++to 0.000503123
Heightened Def Con from 0.000503123 +++++++++++to 0.000503123
Heightened Def Con from 0.000503123 +++++++++++to 0.000503123
Heightened Def Con from 0.000503123 ++++++++++to 0.000503123
Heightened Def Con from 0.000503123 +to 0.000503123
Heightened Def Con from 0.000503123 ++++++++++to 0.000503123
Heightened Def Con from 0.000503123 ++++to 0.000503123
Heightened Def Con from 0.000503123 ++++to 0.000503123
Heightened Def Con from 0.000503123 ++++++++to 0.000503123
Heightened Def Con from 0.000503123 ++++to 0.000503123
Heightened Def Con from 0.000503123 ++++to 0.000503123
Heightened Def Con from 0.000503123 +++++++++++to 0.000503123
Heightened Def Con from 0.000503123 +++++++++to 0.000503123
Heightened Def Con from 0.000503123 +++++++++++to 0.000503123
Heightened Def Con from 0.000503123 +++++++++++to 0.000503123
Heightened Def Con from 0.000503123 +++to 0.000503123
Heightened Def Con from 0.000503123 ++++++to 0.000503123
Heightened Def Con from 0.000503123 ++++++++++to 0.000503123
Heightened Def Con from 0.000503123 ++++++++++to 0.000503123
Heightened Def Con from 0.000503123 ++++++to 0.000503123
Heightened Def Con from 0.000503123 ++++++to 0.000503123
Heightened Def Con from 0.000503123 ++to 0.000503123
Heightened Def Con from 0.000503123 +++++to 0.000503123
Heightened Def Con from 0.000503123 +to 0.000503123
Heightened Def Con from 0.000503123 ++++to 0.000503123
Heightened Def Con from 0.000503123 ++++++++++to 0.000503123
Heightened Def Con from 0.000503123 +to 0.000503123
Heightened Def Con from 0.000503123 to 0.000503123
Heightened Def Con from 0.000503123 to 0.000503123
Heightened Def Con from 0.000503123 +++++++++to 0.000503123
Heightened Def Con from 0.000503123 +++++++++to 0.000503123
Heightened Def Con from 0.000503123 +++++to 0.000503123
Heightened Def Con from 0.000503123 +++++to 0.000503123
Heightened Def Con from 0.000503123 ++++++++to 0.000503123
Heightened Def Con from 0.000503123 ++++++to 0.000503123
Heightened Def Con from 0.000503123 +++++++++to 0.000503123
Heightened Def Con from 0.000503123 ++++++++++to 0.000503123
Heightened Def Con from 0.000503123 ++++++++++to 0.000503123
Heightened Def Con from 0.000503123 ++++++to 0.000503123
Heightened Def Con from 0.000503123 +++++++++to 0.000503123
Heightened Def Con from 0.000503123 +++++++++to 0.000503123
Heightened Def Con from 0.000503123 +to 0.000503123
Heightened Def Con from 0.000503123 +++++++++++to 0.000503123
Heightened Def Con from 0.000503123 ++++++++++to 0.000503123
Heightened Def Con from 0.000503123 +++++++++++to 0.000503123
Heightened Def Con from 0.000503123 to 0.000503123
Heightened Def Con from 0.000503123 +++++++++to 0.000503123
Heightened Def Con from 0.000503123 +++++++++to 0.000503123
Heightened Def Con from 0.000503123 ++++++++to 0.000503123
Heightened Def Con from 0.000503123 ++++++to 0.000503123
Heightened Def Con from 0.000503123 ++++++++to 0.000503123
Heightened Def Con from 0.000503123 to 0.000503123
Heightened Def Con from 0.000503123 +++++to 0.000503123
Heightened Def Con from 0.000503123 +++++to 0.000503123
Heightened Def Con from 0.000503123 +++++to 0.000503123
Heightened Def Con from 0.000503123 +++++to 0.000503123
Heightened Def Con from 0.000503123 +++to 0.000503123
Heightened Def Con from 0.000503123 +++to 0.000503123
Heightened Def Con from 0.000503123 ++++++++++to 0.000503123
Heightened Def Con from 0.000503123 +++to 0.000503123
Heightened Def Con from 0.000503123 ++++++to 0.000503123
Heightened Def Con from 0.000503123 ++++++++to 0.000503123
Heightened Def Con from 0.000503123 +++++++++++to 0.000503123
Heightened Def Con from 0.000503123 to 0.000503123
Heightened Def Con from 0.000503123 +++++++++++to 0.000503123
Heightened Def Con from 0.000503123 +++++++++to 0.000503123
Heightened Def Con from 0.000503123 ++++++to 0.000503123
Heightened Def Con from 0.000503123 ++++++to 0.000503123
Heightened Def Con from 0.000503123 ++++++to 0.000503123
Heightened Def Con from 0.000503123 ++++++to 0.000503123
Heightened Def Con from 0.000503123 +++++++++++to 0.000503123
Heightened Def Con from 0.000503123 +++++++++to 0.000503123
Heightened Def Con from 0.000503123 ++++++to 0.000503123
Heightened Def Con from 0.000503123 +++++to 0.000503123
Heightened Def Con from 0.000503123 ++++++to 0.000503123
Heightened Def Con from 0.000503123 +++++++++++to 0.000503123
Heightened Def Con from 0.000503123 +++++++++++to 0.000503123
Heightened Def Con from 0.000503123 +++++++++to 0.000503123
Heightened Def Con from 0.000503123 ++++++++to 0.000503123
Heightened Def Con from 0.000503123 ++++to 0.000503123
Heightened Def Con from 0.000503123 ++++to 0.000503123
Heightened Def Con from 0.000503123 +++to 0.000503123
Heightened Def Con from 0.000503123 ++++++++to 0.000503123
Heightened Def Con from 0.000503123 to 0.000503123
Heightened Def Con from 0.000503123 +++++to 0.000503123
Heightened Def Con from 0.000503123 +++to 0.000503123
Heightened Def Con from 0.000503123 +++++to 0.000503123
Heightened Def Con from 0.000503123 +++to 0.000503123
Heightened Def Con from 0.000503123 +++++++++++to 0.000503123
Heightened Def Con from 0.000503123 +++++++++++to 0.000503123
Heightened Def Con from 0.000503123 to 0.000503123
Heightened Def Con from 0.000503123 +++++to 0.000503123
Heightened Def Con from 0.000503123 +++to 0.000503123
Heightened Def Con from 0.000503123 ++++++to 0.000503123
Heightened Def Con from 0.000503123 ++++++to 0.000503123
Heightened Def Con from 0.000503123 ++++++++++to 0.000503123
Heightened Def Con from 0.000503123 +++++++++++to 0.000503123
Heightened Def Con from 0.000503123 ++++++++to 0.000503123
Heightened Def Con from 0.000503123 +to 0.000503123
Heightened Def Con from 0.000503123 +++++++++++to 0.000503123
Heightened Def Con from 0.000503123 +++++++++++to 0.000503123
Heightened Def Con from 0.000503123 ++++to 0.000503123
Heightened Def Con from 0.000503123 ++++to 0.000503123
Heightened Def Con from 0.000503123 +++++++++++to 0.000503123
Heightened Def Con from 0.000503123 to 0.000503123
Heightened Def Con from 0.000503123 to 0.000503123
Heightened Def Con from 0.000503123 +++++++++++to 0.000503123
Heightened Def Con from 0.000503123 +to 0.000503123
Heightened Def Con from 0.000503123 +++++to 0.000503123
Heightened Def Con from 0.000503123 +++++++++to 0.000503123
Heightened Def Con from 0.000503123 +to 0.000503123
Heightened Def Con from 0.000503123 +++++to 0.000503123
Heightened Def Con from 0.000503123 ++++++to 0.000503123
Heightened Def Con from 0.000503123 +++++to 0.000503123
Heightened Def Con from 0.000503123 ++++to 0.000503123
Heightened Def Con from 0.000503123 ++++to 0.000503123
Heightened Def Con from 0.000503123 +++++++++to 0.000503123
Heightened Def Con from 0.000503123 ++++++to 0.000503123
Heightened Def Con from 0.000503123 +++to 0.000503123
Heightened Def Con from 0.000503123 +++to 0.000503123
Heightened Def Con from 0.000503123 +++++++++to 0.000503123
Heightened Def Con from 0.000503123 +++++++++to 0.000503123
Heightened Def Con from 0.000503123 ++++++to 0.000503123
Heightened Def Con from 0.000503123 ++++++to 0.000503123
Heightened Def Con from 0.000503123 +++++++++++to 0.000503123
Heightened Def Con from 0.000503123 ++++++to 0.000503123
Heightened Def Con from 0.000503123 to 0.000503123
Heightened Def Con from 0.000503123 ++++to 0.000503123
Heightened Def Con from 0.000503123 +++to 0.000503123
Heightened Def Con from 0.000503123 +++++++++++to 0.000503123
Heightened Def Con from 0.000503123 +++++++++++to 0.000503123
Heightened Def Con from 0.000503123 ++++++++++to 0.000503123
Heightened Def Con from 0.000503123 +++++++++++to 0.000503123
Heightened Def Con from 0.000503123 ++to 0.000503123
Heightened Def Con from 0.000503123 ++++++++++to 0.000503123
Heightened Def Con from 0.000503123 ++++++++++to 0.000503123
Heightened Def Con from 0.000503123 +++++++++++to 0.000503123
Heightened Def Con from 0.000503123 to 0.000503123
Heightened Def Con from 0.000503123 +++++++++to 0.000503123
Heightened Def Con from 0.000503123 ++++++++to 0.000503123
Heightened Def Con from 0.000503123 +++++to 0.000503123
Heightened Def Con from 0.000503123 +++++to 0.000503123
Heightened Def Con from 0.000503123 +++++to 0.000503123
Heightened Def Con from 0.000503123 ++++++++++to 0.000503123
Heightened Def Con from 0.000503123 ++++to 0.000503123
Heightened Def Con from 0.000503123 ++++to 0.000503123
Heightened Def Con from 0.000503123 ++++to 0.000503123
Heightened Def Con from 0.000503123 +++++++++++to 0.000503123
Heightened Def Con from 0.000503123 ++++++++++to 0.000503123
Heightened Def Con from 0.000503123 +++++++++to 0.000503123
Heightened Def Con from 0.000503123 +++++++++++to 0.000503123
Heightened Def Con from 0.000503123 ++++++to 0.000503123
Heightened Def Con from 0.000503123 ++++++to 0.000503123
Heightened Def Con from 0.000503123 ++++++to 0.000503123
Heightened Def Con from 0.000503123 +++++++++++to 0.000503123
Heightened Def Con from 0.000503123 to 0.000503123
Heightened Def Con from 0.000503123 ++++++++++to 0.000503123
Heightened Def Con from 0.000503123 ++++++++++to 0.000503123
Heightened Def Con from 0.000503123 +++++++++to 0.000503123
Heightened Def Con from 0.000503123 ++++++++to 0.000503123
Heightened Def Con from 0.000503123 +to 0.000503123
Heightened Def Con from 0.000503123 +++++++++++to 0.000503123
Heightened Def Con from 0.000503123 +++++++++to 0.000503123
Heightened Def Con from 0.000503123 ++++++++++to 0.000503123
Heightened Def Con from 0.000503123 ++++++++to 0.000503123
Heightened Def Con from 0.000503123 +to 0.000503123
Heightened Def Con from 0.000503123 ++++++to 0.000503123
Heightened Def Con from 0.000503123 +++++to 0.000503123
Heightened Def Con from 0.000503123 +++to 0.000503123
Heightened Def Con from 0.000503123 ++++++++++to 0.000503123
Heightened Def Con from 0.000503123 +++++++++to 0.000503123
Heightened Def Con from 0.000503123 ++++++++to 0.000503123
Heightened Def Con from 0.000503123 +++++++to 0.000503123
Heightened Def Con from 0.000503123 to 0.000503123
Heightened Def Con from 0.000503123 +++++to 0.000503123
Heightened Def Con from 0.000503123 ++++to 0.000503123
Heightened Def Con from 0.000503123 +++to 0.000503123
Heightened Def Con from 0.000503123 +++++++++to 0.000503123
Heightened Def Con from 0.000503123 +++++++++++to 0.000503123
Heightened Def Con from 0.000503123 ++++++to 0.000503123
Heightened Def Con from 0.000503123 ++++to 0.000503123
Heightened Def Con from 0.000503123 +++to 0.000503123
Heightened Def Con from 0.000503123 ++++++++++to 0.000503123
Heightened Def Con from 0.000503123 ++++++++++to 0.000503123
Heightened Def Con from 0.000503123 +++++to 0.000503123
Heightened Def Con from 0.000503123 ++++++to 0.000503123
Heightened Def Con from 0.000503123 +++++++++to 0.000503123
Heightened Def Con from 0.000503123 +++++++++to 0.000503123
Heightened Def Con from 0.000503123 ++++to 0.000503123
Heightened Def Con from 0.000503123 ++++++++++to 0.000503123
Heightened Def Con from 0.000503123 ++++++++++to 0.000503123
Heightened Def Con from 0.000503123 +to 0.000503123
Heightened Def Con from 0.000503123 ++++++++++to 0.000503123
Heightened Def Con from 0.000503123 +++++++++to 0.000503123
Heightened Def Con from 0.000503123 ++++++++++to 0.000503123
Heightened Def Con from 0.000503123 +++++to 0.000503123
Heightened Def Con from 0.000503123 ++++++++++to 0.000503123
Heightened Def Con from 0.000503123 ++++++++++to 0.000503123
Heightened Def Con from 0.000503123 ++++++++++to 0.000503123
Heightened Def Con from 0.000503123 +++++++to 0.000503123
Heightened Def Con from 0.000503123 +++++++++++to 0.000503123
Heightened Def Con from 0.000503123 +++++++++to 0.000503123
Heightened Def Con from 0.000503123 +++++++++to 0.000503123
Heightened Def Con from 0.000503123 +++++++++++to 0.000503123
Heightened Def Con from 0.000503123 ++++++to 0.000503123
Heightened Def Con from 0.000503123 ++++++++to 0.000503123
Heightened Def Con from 0.000503123 ++++++++++to 0.000503123
Heightened Def Con from 0.000503123 +++++++++++to 0.000503123
Heightened Def Con from 0.000503123 +++++++++to 0.000503123
Heightened Def Con from 0.000503123 +++++++++++to 0.000503123
Heightened Def Con from 0.000503123 ++++++++++to 0.000503123
Heightened Def Con from 0.000503123 ++++++++++to 0.000503123
Heightened Def Con from 0.000503123 ++++to 0.000503123
Heightened Def Con from 0.000503123 +++++to 0.000503123
Heightened Def Con from 0.000503123 ++++++++to 0.000503123
Heightened Def Con from 0.000503123 ++++++++++to 0.000503123
Heightened Def Con from 0.000503123 ++++++++++to 0.000503123
Heightened Def Con from 0.000503123 ++++++++++to 0.000503123
Heightened Def Con from 0.000503123 ++++++++++to 0.000503123
Heightened Def Con from 0.000503123 ++++++++++to 0.000503123
Heightened Def Con from 0.000503123 ++++++++++to 0.000503123
Heightened Def Con from 0.000503123 +++++++++to 0.000503123
Heightened Def Con from 0.000503123 ++++++++++to 0.000503123
Heightened Def Con from 0.000503123 +++++++++++to 0.000503123
Heightened Def Con from 0.000503123 ++++++++++to 0.000503123
Heightened Def Con from 0.000503123 +++++++++++to 0.000503123
Heightened Def Con from 0.000503123 ++++++++to 0.000503123
Heightened Def Con from 0.000503123 +++++to 0.000503123
Heightened Def Con from 0.000503123 ++++++++to 0.000503123
Heightened Def Con from 0.000503123 ++++++++++to 0.000503123
Heightened Def Con from 0.000503123 ++++++++++to 0.000503123
Heightened Def Con from 0.000503123 +++++++++++to 0.000503123
Heightened Def Con from 0.000503123 ++++++++to 0.000503123
Heightened Def Con from 0.000503123 +++++++++++to 0.000503123
Heightened Def Con from 0.000503123 ++++++++++to 0.000503123
Heightened Def Con from 0.000503123 +++++++++++to 0.000503123
Heightened Def Con from 0.000503123 +++++++++++to 0.000503123
Heightened Def Con from 0.000503123 +++++++++++to 0.000503123
Heightened Def Con from 0.000503123 +++++++++++to 0.000503123
Heightened Def Con from 0.000503123 +++++++++++to 0.000503123
Heightened Def Con from 0.000503123 +++++++++++to 0.000503123
Heightened Def Con from 0.000503123 +++++++++to 0.000503123
Heightened Def Con from 0.000503123 +++++++++to 0.000503123
Heightened Def Con from 0.000503123 ++++++to 0.000503123
Heightened Def Con from 0.000503123 +++++++++++to 0.000503123
Heightened Def Con from 0.000503123 ++++++++++to 0.000503123
Heightened Def Con from 0.000503123 +++++++++++to 0.000503123
Heightened Def Con from 0.000503123 +++++++++++to 0.000503123
Heightened Def Con from 0.000503123 ++++++++++to 0.000503123
Heightened Def Con from 0.000503123 +++++++++to 0.000503123
Heightened Def Con from 0.000503123 +++++++++to 0.000503123
Heightened Def Con from 0.000503123 ++++++++++to 0.000503123
Heightened Def Con from 0.000503123 ++++++++++to 0.000503123
Heightened Def Con from 0.000503123 ++++++++++to 0.000503123
Heightened Def Con from 0.000503123 ++++++++++to 0.000503123
Heightened Def Con from 0.000503123 +++++++++to 0.000503123
Heightened Def Con from 0.000503123 ++++++to 0.000503123
Heightened Def Con from 0.000503123 +++++++++++to 0.000503123
Heightened Def Con from 0.000503123 ++++++++++to 0.000503123
Heightened Def Con from 0.000503123 ++++++++++to 0.000503123
Heightened Def Con from 0.000503123 +++++++++to 0.000503123
Heightened Def Con from 0.000503123 ++++++++++to 0.000503123
Heightened Def Con from 0.000503123 +++++++++to 0.000503123
Heightened Def Con from 0.000503123 ++++++to 0.000503123
Heightened Def Con from 0.000503123 ++++++++++to 0.000503123
Heightened Def Con from 0.000503123 +++to 0.000503123
Heightened Def Con from 0.000503123 ++++++++++to 0.000503123
Heightened Def Con from 0.000503123 ++++++++++to 0.000503123
Heightened Def Con from 0.000503123 ++++++++++to 0.000503123
Heightened Def Con from 0.000503123 +++++++++to 0.000503123
Heightened Def Con from 0.000503123 +++++++++to 0.000503123
Heightened Def Con from 0.000503123 +++++++++to 0.000503123
Heightened Def Con from 0.000503123 ++++++++++to 0.000503123
Heightened Def Con from 0.000503123 ++++++++++to 0.000503123
Heightened Def Con from 0.000503123 +++++++++to 0.000503123
Heightened Def Con from 0.000503123 ++++++++++to 0.000503123
Heightened Def Con from 0.000503123 +++++++++to 0.000503123
Heightened Def Con from 0.000503123 ++++++++++to 0.000503123
Heightened Def Con from 0.000503123 +++++++++++to 0.000503123
Heightened Def Con from 0.000503123 ++++++++++to 0.000503123
Heightened Def Con from 0.000503123 +++++++++++to 0.000503123
Heightened Def Con from 0.000503123 ++++++++++to 0.000503123
Heightened Def Con from 0.000503123 +++++to 0.000503123
Heightened Def Con from 0.000503123 +++++++++to 0.000503123
Heightened Def Con from 0.000503123 ++++++++++to 0.000503123
Heightened Def Con from 0.000503123 ++++++++++to 0.000503123
Heightened Def Con from 0.000503123 +++++to 0.000503123
Heightened Def Con from 0.000503123 to 0.000503123
Heightened Def Con from 0.000503123 ++++++to 0.000503123
Heightened Def Con from 0.000503123 to 0.000503123
Heightened Def Con from 0.000503123 ++++++++++to 0.000503123
Heightened Def Con from 0.000503123 +++++++++to 0.000503123
Heightened Def Con from 0.000503123 ++++++++++to 0.000503123
Heightened Def Con from 0.000503123 ++++++to 0.000503123
Heightened Def Con from 0.000503123 ++++++++++to 0.000503123
Heightened Def Con from 0.000503123 ++++++++++to 0.000503123
Heightened Def Con from 0.000503123 ++++++++++to 0.000503123
Heightened Def Con from 0.000503123 ++++++++++to 0.000503123
Heightened Def Con from 0.000503123 +++++++++++to 0.000503123
Heightened Def Con from 0.000503123 +++++++++++to 0.000503123
Heightened Def Con from 0.000503123 +++++++++to 0.000503123
Heightened Def Con from 0.000503123 ++++++++++to 0.000503123
Heightened Def Con from 0.000503123 ++++++++++to 0.000503123
Heightened Def Con from 0.000503123 +++++++++++to 0.000503123
Heightened Def Con from 0.000503123 +++++++++to 0.000503123
Heightened Def Con from 0.000503123 ++++++++++to 0.000503123
Heightened Def Con from 0.000503123 ++++++++++to 0.000503123
Heightened Def Con from 0.000503123 +++++++++++to 0.000503123
Heightened Def Con from 0.000503123 +++++++++++to 0.000503123
Heightened Def Con from 0.000503123 +++++++++++to 0.000503123
Heightened Def Con from 0.000503123 +++++++++to 0.000503123
Heightened Def Con from 0.000503123 ++++++++++to 0.000503123
Heightened Def Con from 0.000503123 ++++++++++to 0.000503123
Heightened Def Con from 0.000503123 +++++++++to 0.000503123
Heightened Def Con from 0.000503123 +++++++++to 0.000503123
Heightened Def Con from 0.000503123 ++++++++to 0.000503123
Heightened Def Con from 0.000503123 ++++++++++to 0.000503123
Heightened Def Con from 0.000503123 +++++++++to 0.000503123
Heightened Def Con from 0.000503123 ++++++++++to 0.000503123
Heightened Def Con from 0.000503123 ++++++++++to 0.000503123
Heightened Def Con from 0.000503123 ++++++++++to 0.000503123
Heightened Def Con from 0.000503123 ++++++++++to 0.000503123
Heightened Def Con from 0.000503123 +++to 0.000503123
Heightened Def Con from 0.000503123 ++++++++++to 0.000503123
Heightened Def Con from 0.000503123 ++++++++to 0.000503123
Heightened Def Con from 0.000503123 ++++++++to 0.000503123
Heightened Def Con from 0.000503123 +++++to 0.000503123
Heightened Def Con from 0.000503123 ++++++++++to 0.000503123
Heightened Def Con from 0.000503123 +++++++++to 0.000503123
Heightened Def Con from 0.000503123 +++++++++to 0.000503123
Heightened Def Con from 0.000503123 ++++++++++to 0.000503123
Heightened Def Con from 0.000503123 ++++++++++to 0.000503123
Heightened Def Con from 0.000503123 ++++++++++to 0.000503123
Heightened Def Con from 0.000503123 +++++++++++to 0.000503123
Heightened Def Con from 0.000503123 +++++to 0.000503123
Heightened Def Con from 0.000503123 +++++++++++to 0.000503123
Heightened Def Con from 0.000503123 ++to 0.000503123
Heightened Def Con from 0.000503123 +++++++to 0.000503123
Heightened Def Con from 0.000503123 +++++++to 0.000503123
Heightened Def Con from 0.000503123 ++++++++++to 0.000503123
Heightened Def Con from 0.000503123 +++++++++to 0.000503123
Heightened Def Con from 0.000503123 +++++to 0.000503123
Heightened Def Con from 0.000503123 +++++++to 0.000503123
Heightened Def Con from 0.000503123 +++++++++++to 0.000503123
Heightened Def Con from 0.000503123 +++++++to 0.000503123
Heightened Def Con from 0.000503123 +++++++to 0.000503123
Heightened Def Con from 0.000503123 +++++++++to 0.000503123
Heightened Def Con from 0.000503123 +++++++to 0.000503123
Heightened Def Con from 0.000503123 +++++++to 0.000503123
Heightened Def Con from 0.000503123 ++++++++to 0.000503123
Heightened Def Con from 0.000503123 ++++++++++to 0.000503123
Heightened Def Con from 0.000503123 +++++++to 0.000503123
Heightened Def Con from 0.000503123 +++++++to 0.000503123
Heightened Def Con from 0.000503123 +++++++to 0.000503123
Heightened Def Con from 0.000503123 ++++++++++to 0.000503123
Heightened Def Con from 0.000503123 +++++++to 0.000503123
Heightened Def Con from 0.000503123 +++++++to 0.000503123
Heightened Def Con from 0.000503123 +++++++to 0.000503123
Heightened Def Con from 0.000503123 ++++++++to 0.000503123
Heightened Def Con from 0.000503123 +++++++to 0.000503123
Heightened Def Con from 0.000503123 to 0.000503123
Heightened Def Con from 0.000503123 ++++++++++to 0.000503123
Heightened Def Con from 0.000503123 ++++++++++to 0.000503123
Heightened Def Con from 0.000503123 ++to 0.000503123
Heightened Def Con from 0.000503123 +++++++++++to 0.000503123
Heightened Def Con from 0.000503123 ++++++++++to 0.000503123
Heightened Def Con from 0.000503123 ++++++++++to 0.000503123
Heightened Def Con from 0.000503123 +++++++++++to 0.000503123
Heightened Def Con from 0.000503123 +++++++++++to 0.000503123
Heightened Def Con from 0.000503123 ++++++++++to 0.000503123
Heightened Def Con from 0.000503123 ++++++++++to 0.000503123
Heightened Def Con from 0.000503123 ++++++++++to 0.000503123
Heightened Def Con from 0.000503123 +++++++++++to 0.000503123
Heightened Def Con from 0.000503123 ++++++++++to 0.000503123
Heightened Def Con from 0.000503123 +++++++++to 0.000503123
Heightened Def Con from 0.000503123 +++++++++++to 0.000503123
Heightened Def Con from 0.000503123 +++++++++to 0.000503123
Heightened Def Con from 0.000503123 +++++++++to 0.000503123
Heightened Def Con from 0.000503123 ++++++++++to 0.000503123
Heightened Def Con from 0.000503123 ++++++++++to 0.000503123
Heightened Def Con from 0.000503123 ++++++++++to 0.000503123
Heightened Def Con from 0.000503123 ++++++++++to 0.000503123
Heightened Def Con from 0.000503123 ++++++++++to 0.000503123
Heightened Def Con from 0.000503123 ++++++++++to 0.000503123
Heightened Def Con from 0.000503123 ++++++++++to 0.000503123
Heightened Def Con from 0.000503123 +++++++++++to 0.000503123
Heightened Def Con from 0.000503123 +++++++++to 0.000503123
Heightened Def Con from 0.000503123 +++++++to 0.000503123
Heightened Def Con from 0.000503123 +++++++++++to 0.000503123
Heightened Def Con from 0.000503123 ++++++++++to 0.000503123
Heightened Def Con from 0.000503123 ++++++++++to 0.000503123
Heightened Def Con from 0.000503123 ++++++++++to 0.000503123
Heightened Def Con from 0.000503123 ++++++++to 0.000503123
Heightened Def Con from 0.000503123 +++++++++++to 0.000503123
Heightened Def Con from 0.000503123 ++++++++++to 0.000503123
Heightened Def Con from 0.000503123 +++++++++to 0.000503123
Heightened Def Con from 0.000503123 ++++++++++to 0.000503123
Heightened Def Con from 0.000503123 +++++to 0.000503123
Heightened Def Con from 0.000503123 +++++++++++to 0.000503123
Heightened Def Con from 0.000503123 +++++++++++to 0.000503123
Heightened Def Con from 0.000503123 ++++++to 0.000503123
Heightened Def Con from 0.000503123 +++++++++to 0.000503123
Heightened Def Con from 0.000503123 +++++++++to 0.000503123
Heightened Def Con from 0.000503123 +++++++++to 0.000503123
Heightened Def Con from 0.000503123 ++++++++++to 0.000503123
Heightened Def Con from 0.000503123 +++++++++to 0.000503123
Heightened Def Con from 0.000503123 +++++++++++to 0.000503123
Heightened Def Con from 0.000503123 ++++++to 0.000503123
Heightened Def Con from 0.000503123 ++++++++++to 0.000503123
Heightened Def Con from 0.000503123 +++++++++to 0.000503123
Heightened Def Con from 0.000503123 +++++++++++to 0.000503123
Heightened Def Con from 0.000503123 ++++++++++to 0.000503123
Heightened Def Con from 0.000503123 +++++++++to 0.000503123
Heightened Def Con from 0.000503123 ++++++++++to 0.000503123
Heightened Def Con from 0.000503123 +++++++++to 0.000503123
Heightened Def Con from 0.000503123 +++++++to 0.000503123
Heightened Def Con from 0.000503123 ++++++++++to 0.000503123
Heightened Def Con from 0.000503123 ++++++++++to 0.000503123
Heightened Def Con from 0.000503123 +++++++to 0.000503123
Heightened Def Con from 0.000503123 +++++++to 0.000503123
Heightened Def Con from 0.000503123 +to 0.000503123
Heightened Def Con from 0.000503123 +++++to 0.000503123
Heightened Def Con from 0.000503123 ++++++++++to 0.000503123
Heightened Def Con from 0.000503123 +++++++to 0.000503123
Heightened Def Con from 0.000503123 +++++++to 0.000503123
Heightened Def Con from 0.000503123 +++++++++++to 0.000503123
Heightened Def Con from 0.000503123 +++++++to 0.000503123
Heightened Def Con from 0.000503123 +++++++to 0.000503123
Heightened Def Con from 0.000503123 ++++++++++to 0.000503123
Heightened Def Con from 0.000503123 +++++++to 0.000503123
Heightened Def Con from 0.000503123 +++to 0.000503123
Heightened Def Con from 0.000503123 +to 0.000503123
Heightened Def Con from 0.000503123 ++++++++++to 0.000503123
Heightened Def Con from 0.000503123 ++++++++++to 0.000503123
Heightened Def Con from 0.000503123 +++++++++++to 0.000503123
Heightened Def Con from 0.000503123 +++++++++++to 0.000503123
Heightened Def Con from 0.000503123 ++++++++++to 0.000503123
Heightened Def Con from 0.000503123 ++++++++to 0.000503123
Heightened Def Con from 0.000503123 +++++++++to 0.000503123
Heightened Def Con from 0.000503123 ++++++++++to 0.000503123
Heightened Def Con from 0.000503123 ++++++++++to 0.000503123
Heightened Def Con from 0.000503123 +++++++++++to 0.000503123
Heightened Def Con from 0.000503123 ++++++++++to 0.000503123
Heightened Def Con from 0.000503123 ++++++++++to 0.000503123
Heightened Def Con from 0.000503123 +++++++++++to 0.000503123
Heightened Def Con from 0.000503123 ++++++++++to 0.000503123
Heightened Def Con from 0.000503123 +++++++++++to 0.000503123
[...]
Heightened Def Con from 0.000503123 ++++++++++++to 0.000503123
Heightened Def Con from 0.000503123 ++++++++to 0.000503123
Heightened Def Con from 0.000503123 ++++++++to 0.000503123
Heightened Def Con from 0.000503123 ++++++++++++to 0.000503123
Heightened Def Con from 0.000503123 ++++++++++++to 0.000503123
Heightened Def Con from 0.000503123 ++++++++++++to 0.000503123
Heightened Def Con from 0.000503123 ++++++++++++to 0.000503123
Heightened Def Con from 0.000503123 ++++++++++++to 0.000503123
Heightened Def Con from 0.000503123 ++++++++++++to 0.000503123
Heightened Def Con from 0.000503123 ++++++++++++to 0.000503123
Heightened Def Con from 0.000503123 +++++++to 0.000503123
Heightened Def Con from 0.000503123 ++++to 0.000503123
Heightened Def Con from 0.000503123 ++++++++++++to 0.000503123
Heightened Def Con from 0.000503123 ++++++++++++to 0.000503123
Heightened Def Con from 0.000503123 ++++++++++++to 0.000503123
Heightened Def Con from 0.000503123 ++++++++++++to 0.000503123
Heightened Def Con from 0.000503123 ++++++++++++to 0.000503123
Heightened Def Con from 0.000503123 ++++++++++++to 0.000503123
Heightened Def Con from 0.000503123 ++++++++++++to 0.000503123
Heightened Def Con from 0.000503123 ++++++++++++to 0.000503123
Heightened Def Con from 0.000503123 ++++++++to 0.000503123
Heightened Def Con from 0.000503123 ++++++++++++to 0.000503123
Heightened Def Con from 0.000503123 ++++++++++++to 0.000503123
Heightened Def Con from 0.000503123 ++++++++++++to 0.000503123
Heightened Def Con from 0.000503123 ++++++++++++to 0.000503123
Heightened Def Con from 0.000503123 ++++++++++++to 0.000503123
Heightened Def Con from 0.000503123 ++++++++++++to 0.000503123
Heightened Def Con from 0.000503123 ++++++++++++to 0.000503123
Heightened Def Con from 0.000503123 ++++++++++++to 0.000503123
Heightened Def Con from 0.000503123 ++++++++++++to 0.000503123
Heightened Def Con from 0.000503123 ++++++++++++to 0.000503123
Heightened Def Con from 0.000503123 ++++++++++++to 0.000503123
Heightened Def Con from 0.000503123 ++++++++++++to 0.000503123
Heightened Def Con from 0.000503123 ++++++++++++to 0.000503123
Heightened Def Con from 0.000503123 ++++++++++++to 0.000503123
Heightened Def Con from 0.000503123 ++++++++++++to 0.000503123
Heightened Def Con from 0.000503123 ++++++++++++to 0.000503123
Heightened Def Con from 0.000503123 ++++++++++++to 0.000503123
Heightened Def Con from 0.000503123 ++++++++++++to 0.000503123
Heightened Def Con from 0.000503123 ++++++++++++to 0.000503123
Heightened Def Con from 0.000503123 ++++++++++++to 0.000503123
Heightened Def Con from 0.000503123 ++++++++to 0.000503123
Heightened Def Con from 0.000503123 ++++++++++++to 0.000503123
Heightened Def Con from 0.000503123 ++++++++++++to 0.000503123
Heightened Def Con from 0.000503123 ++++++++++++to 0.000503123
Heightened Def Con from 0.000503123 ++++++++++++to 0.000503123
Heightened Def Con from 0.000503123 ++++++++++++to 0.000503123
Heightened Def Con from 0.000503123 ++++++++++++to 0.000503123
Heightened Def Con from 0.000503123 ++++++++++++to 0.000503123
Heightened Def Con from 0.000503123 ++++++++++++to 0.000503123
Heightened Def Con from 0.000503123 ++++++++++++to 0.000503123
Heightened Def Con from 0.000503123 ++++++++++++to 0.000503123
Heightened Def Con from 0.000503123 ++++++++++++to 0.000503123
Heightened Def Con from 0.000503123 ++++++++++++to 0.000503123
Heightened Def Con from 0.000503123 ++++++++++++to 0.000503123
Heightened Def Con from 0.000503123 ++++++++++++to 0.000503123
Heightened Def Con from 0.000503123 ++++++++++++to 0.000503123
Heightened Def Con from 0.000503123 ++++++++++++to 0.000503123
Heightened Def Con from 0.000503123 ++++++++++++to 0.000503123
Heightened Def Con from 0.000503123 ++++++++++++to 0.000503123
Heightened Def Con from 0.000503123 ++++++++++++to 0.000503123
Heightened Def Con from 0.000503123 ++++++++++++to 0.000503123
Heightened Def Con from 0.000503123 ++++++++++++to 0.000503123
Heightened Def Con from 0.000503123 ++++++++++++to 0.000503123
Heightened Def Con from 0.000503123 +++++++++++to 0.000503123
Heightened Def Con from 0.000503123 ++++++++++++to 0.000503123
Heightened Def Con from 0.000503123 ++++++++to 0.000503123
Heightened Def Con from 0.000503123 ++++++++to 0.000503123
Heightened Def Con from 0.000503123 ++++++++to 0.000503123
Heightened Def Con from 0.000503123 ++++++++++++to 0.000503123
Heightened Def Con from 0.000503123 ++++++++++++to 0.000503123
Heightened Def Con from 0.000503123 ++++++++++++to 0.000503123
Heightened Def Con from 0.000503123 ++++++++++++to 0.000503123
Heightened Def Con from 0.000503123 ++++++++to 0.000503123
Heightened Def Con from 0.000503123 ++++++++++++to 0.000503123
Heightened Def Con from 0.000503123 ++++++++++++to 0.000503123
Heightened Def Con from 0.000503123 ++++++++++++to 0.000503123
Heightened Def Con from 0.000503123 ++++++++++++to 0.000503123
Heightened Def Con from 0.000503123 ++++++++++++to 0.000503123
Heightened Def Con from 0.000503123 ++++++++++++to 0.000503123
Heightened Def Con from 0.000503123 ++++++++++++to 0.000503123
Heightened Def Con from 0.000503123 ++++++++++++to 0.000503123
Heightened Def Con from 0.000503123 +++++++to 0.000503123
Heightened Def Con from 0.000503123 +++++++to 0.000503123
Heightened Def Con from 0.000503123 ++++++++++++to 0.000503123
Heightened Def Con from 0.000503123 ++++++++++++to 0.000503123
Heightened Def Con from 0.000503123 ++++++++++++to 0.000503123
Heightened Def Con from 0.000503123 ++++++++++++to 0.000503123
Heightened Def Con from 0.000503123 ++++++++++++to 0.000503123
Heightened Def Con from 0.000503123 ++++++++++++to 0.000503123
Heightened Def Con from 0.000503123 ++++++++++++to 0.000503123
Heightened Def Con from 0.000503123 ++++++++++++to 0.000503123
Heightened Def Con from 0.000503123 ++++++++++++to 0.000503123
Heightened Def Con from 0.000503123 ++++++++++++to 0.000503123
Heightened Def Con from 0.000503123 ++++++++++++to 0.000503123
Heightened Def Con from 0.000503123 ++++++++++++to 0.000503123
Heightened Def Con from 0.000503123 ++++++++++++to 0.000503123
Heightened Def Con from 0.000503123 ++++++++++++to 0.000503123
Heightened Def Con from 0.000503123 ++++++++++++to 0.000503123
Heightened Def Con from 0.000503123 ++++++++++++to 0.000503123
Heightened Def Con from 0.000503123 ++++++++++++to 0.000503123
Heightened Def Con from 0.000503123 ++++++++++++to 0.000503123
Heightened Def Con from 0.000503123 ++++++++++++to 0.000503123
Heightened Def Con from 0.000503123 ++++++++++++to 0.000503123
Heightened Def Con from 0.000503123 ++++++++++++to 0.000503123
Heightened Def Con from 0.000503123 ++++++++++++to 0.000503123
Heightened Def Con from 0.000503123 ++++++++++++to 0.000503123
Heightened Def Con from 0.000503123 ++++++++++++to 0.000503123
Heightened Def Con from 0.000503123 +++++++to 0.000503123
Heightened Def Con from 0.000503123 +++++++to 0.000503123
Heightened Def Con from 0.000503123 +++to 0.000503123
Heightened Def Con from 0.000503123 ++++++++++++to 0.000503123
Heightened Def Con from 0.000503123 ++++++++++++to 0.000503123
Heightened Def Con from 0.000503123 ++++++++++++to 0.000503123
Heightened Def Con from 0.000503123 ++++++++++++to 0.000503123
Heightened Def Con from 0.000503123 +++++++to 0.000503123
Heightened Def Con from 0.000503123 +++++++to 0.000503123
Heightened Def Con from 0.000503123 ++++++++++++to 0.000503123
Heightened Def Con from 0.000503123 +++++++to 0.000503123
Heightened Def Con from 0.000503123 +++++++to 0.000503123
Heightened Def Con from 0.000503123 +++++++to 0.000503123
Heightened Def Con from 0.000503123 +++++++to 0.000503123
Heightened Def Con from 0.000503123 +++++++to 0.000503123
Heightened Def Con from 0.000503123 ++++++++++++to 0.000503123
Heightened Def Con from 0.000503123 ++++++++++++to 0.000503123
Heightened Def Con from 0.000503123 ++++++++++++to 0.000503123
Heightened Def Con from 0.000503123 ++++++++to 0.000503123
Heightened Def Con from 0.000503123 ++++++++to 0.000503123
Heightened Def Con from 0.000503123 ++++++++to 0.000503123
Heightened Def Con from 0.000503123 ++++++++++++to 0.000503123
Heightened Def Con from 0.000503123 ++++++++++++to 0.000503123
Heightened Def Con from 0.000503123 ++++++++++++to 0.000503123
Heightened Def Con from 0.000503123 ++++++++to 0.000503123
Heightened Def Con from 0.000503123 ++++++++to 0.000503123
Heightened Def Con from 0.000503123 ++++++++++++to 0.000503123
Heightened Def Con from 0.000503123 ++++++++++++to 0.000503123
Heightened Def Con from 0.000503123 ++++++++++++to 0.000503123
Heightened Def Con from 0.000503123 ++++++++++++to 0.000503123
Heightened Def Con from 0.000503123 ++++++++++++to 0.000503123
Heightened Def Con from 0.000503123 ++++++++++++to 0.000503123
Heightened Def Con from 0.000503123 ++++++++++++to 0.000503123
Heightened Def Con from 0.000503123 ++++++++++++to 0.000503123
Heightened Def Con from 0.000503123 ++++++++++++to 0.000503123
Heightened Def Con from 0.000503123 ++++++++++++to 0.000503123
Heightened Def Con from 0.000503123 ++++++++++++to 0.000503123
Heightened Def Con from 0.000503123 ++++++++++++to 0.000503123
Heightened Def Con from 0.000503123 ++++++++++++to 0.000503123
Heightened Def Con from 0.000503123 ++++++++++++to 0.000503123
Heightened Def Con from 0.000503123 ++++++++++++to 0.000503123
Heightened Def Con from 0.000503123 ++++++++++++to 0.000503123
Heightened Def Con from 0.000503123 ++++++++++++to 0.000503123
Heightened Def Con from 0.000503123 ++++++++++++to 0.000503123
Heightened Def Con from 0.000503123 ++++++++++++to 0.000503123
Heightened Def Con from 0.000503123 ++++++++++++to 0.000503123
Heightened Def Con from 0.000503123 ++++++++++++to 0.000503123
Heightened Def Con from 0.000503123 ++++++++++++to 0.000503123
Heightened Def Con from 0.000503123 ++++++++++++to 0.000503123
Heightened Def Con from 0.000503123 ++++++++++++to 0.000503123
Heightened Def Con from 0.000503123 ++++++++++++to 0.000503123
Heightened Def Con from 0.000503123 ++++++++++++to 0.000503123
Heightened Def Con from 0.000503123 ++++++++++++to 0.000503123
Heightened Def Con from 0.000503123 ++++++++++++to 0.000503123
Heightened Def Con from 0.000503123 ++++++++to 0.000503123
Heightened Def Con from 0.000503123 ++++++++to 0.000503123
Heightened Def Con from 0.000503123 ++++++++to 0.000503123
Heightened Def Con from 0.000503123 ++++++++++++to 0.000503123
Heightened Def Con from 0.000503123 ++++++++++++to 0.000503123
Heightened Def Con from 0.000503123 ++++++++++++to 0.000503123
Heightened Def Con from 0.000503123 ++++++++++++to 0.000503123
Heightened Def Con from 0.000503123 ++++++++++++to 0.000503123
Heightened Def Con from 0.000503123 ++++++++++++to 0.000503123
Heightened Def Con from 0.000503123 ++++++++++++to 0.000503123
Heightened Def Con from 0.000503123 ++++++++++++to 0.000503123
Heightened Def Con from 0.000503123 ++++++++++++to 0.000503123
Heightened Def Con from 0.000503123 ++++++++++++to 0.000503123
Heightened Def Con from 0.000503123 +++++++to 0.000503123
Heightened Def Con from 0.000503123 ++++++++++++to 0.000503123
Heightened Def Con from 0.000503123 ++++++++++++to 0.000503123
Heightened Def Con from 0.000503123 ++++++++++++to 0.000503123
Heightened Def Con from 0.000503123 ++++++++++++to 0.000503123
Heightened Def Con from 0.000503123 ++++++++++++to 0.000503123
Heightened Def Con from 0.000503123 ++++++++++++to 0.000503123
Heightened Def Con from 0.000503123 ++++++++++++to 0.000503123
Heightened Def Con from 0.000503123 ++++++++++++to 0.000503123
Heightened Def Con from 0.000503123 ++++++++++++to 0.000503123
Heightened Def Con from 0.000503123 ++++++++++++to 0.000503123
Heightened Def Con from 0.000503123 ++++++++++++to 0.000503123
Heightened Def Con from 0.000503123 ++++++++++++to 0.000503123
Heightened Def Con from 0.000503123 ++++++++++++to 0.000503123
Heightened Def Con from 0.000503123 ++++++++++++to 0.000503123
Heightened Def Con from 0.000503123 ++++++++++++to 0.000503123
Heightened Def Con from 0.000503123 ++++++++++++to 0.000503123
Heightened Def Con from 0.000503123 ++++++++++++to 0.000503123
Heightened Def Con from 0.000503123 ++++++++++++to 0.000503123
Heightened Def Con from 0.000503123 ++++++++++++to 0.000503123
Heightened Def Con from 0.000503123 ++++++++++++to 0.000503123
Heightened Def Con from 0.000503123 ++++++++++++to 0.000503123
Heightened Def Con from 0.000503123 ++++++++++++to 0.000503123
Heightened Def Con from 0.000503123 ++++++++++++to 0.000503123
Heightened Def Con from 0.000503123 ++++++++++++to 0.000503123
Heightened Def Con from 0.000503123 ++++++++++++to 0.000503123
Heightened Def Con from 0.000503123 ++++++++++++to 0.000503123
Heightened Def Con from 0.000503123 ++++++++++++to 0.000503123
Heightened Def Con from 0.000503123 ++++++++++++to 0.000503123
Heightened Def Con from 0.000503123 ++++++++++++to 0.000503123
Heightened Def Con from 0.000503123 ++++++++to 0.000503123
Heightened Def Con from 0.000503123 ++++++++++++to 0.000503123
Heightened Def Con from 0.000503123 ++++++++++++to 0.000503123
Heightened Def Con from 0.000503123 ++++++++++++to 0.000503123
Heightened Def Con from 0.000503123 ++++++++++++to 0.000503123
Heightened Def Con from 0.000503123 ++++++++++++to 0.000503123
Heightened Def Con from 0.000503123 ++++++++++++to 0.000503123
Heightened Def Con from 0.000503123 ++++++++to 0.000503123
Heightened Def Con from 0.000503123 ++++++++++++to 0.000503123
Heightened Def Con from 0.000503123 ++++++++++++to 0.000503123
Heightened Def Con from 0.000503123 ++++++++++++to 0.000503123
Heightened Def Con from 0.000503123 ++++++++++++to 0.000503123
Heightened Def Con from 0.000503123 ++++++++++++to 0.000503123
Heightened Def Con from 0.000503123 ++++++++++++to 0.000503123
Heightened Def Con from 0.000503123 ++++++++++++to 0.000503123
Heightened Def Con from 0.000503123 ++++++++to 0.000503123
Heightened Def Con from 0.000503123 ++++++++to 0.000503123
Heightened Def Con from 0.000503123 ++++++++++++to 0.000503123
Heightened Def Con from 0.000503123 ++++++++++++to 0.000503123
Heightened Def Con from 0.000503123 ++++++++++++to 0.000503123
Heightened Def Con from 0.000503123 ++++++++++++to 0.000503123
Heightened Def Con from 0.000503123 ++++++++++++to 0.000503123
Heightened Def Con from 0.000503123 +++to 0.000503123
Heightened Def Con from 0.000503123 ++++++++++++to 0.000503123
Heightened Def Con from 0.000503123 ++++++++++++to 0.000503123
Heightened Def Con from 0.000503123 ++++++++++++to 0.000503123
Heightened Def Con from 0.000503123 ++++++++++++to 0.000503123
Heightened Def Con from 0.000503123 ++++++++++++to 0.000503123
Heightened Def Con from 0.000503123 ++++++++++++to 0.000503123
Heightened Def Con from 0.000503123 ++++++++++++to 0.000503123
Heightened Def Con from 0.000503123 ++++++++++++to 0.000503123
Heightened Def Con from 0.000503123 ++++++++++++to 0.000503123
Heightened Def Con from 0.000503123 ++++++++++++to 0.000503123
Heightened Def Con from 0.000503123 ++++++++++++to 0.000503123
Heightened Def Con from 0.000503123 ++++++++++++to 0.000503123
Heightened Def Con from 0.000503123 ++++++++++++to 0.000503123
Heightened Def Con from 0.000503123 ++++++++++++to 0.000503123
Heightened Def Con from 0.000503123 ++++++++++++to 0.000503123
Heightened Def Con from 0.000503123 ++++++++++++to 0.000503123
Heightened Def Con from 0.000503123 ++++++++++++to 0.000503123
Heightened Def Con from 0.000503123 ++++++++++++to 0.000503123
Heightened Def Con from 0.000503123 ++++++++++++to 0.000503123
Heightened Def Con from 0.000503123 ++++++++++++to 0.000503123
Heightened Def Con from 0.000503123 ++++++++++++to 0.000503123
Heightened Def Con from 0.000503123 ++++++++++++to 0.000503123
Heightened Def Con from 0.000503123 ++++++++++++to 0.000503123
Heightened Def Con from 0.000503123 ++++++++++++to 0.000503123
Heightened Def Con from 0.000503123 ++++++++++++to 0.000503123
Heightened Def Con from 0.000503123 ++++++++++++to 0.000503123
Heightened Def Con from 0.000503123 ++++++++++++to 0.000503123
Heightened Def Con from 0.000503123 +++++++to 0.000503123
Heightened Def Con from 0.000503123 ++++++++++++to 0.000503123
Heightened Def Con from 0.000503123 ++++++++++++to 0.000503123
Heightened Def Con from 0.000503123 ++++++++++++to 0.000503123
Heightened Def Con from 0.000503123 ++++++++++++to 0.000503123
Heightened Def Con from 0.000503123 ++++++++++++to 0.000503123
Heightened Def Con from 0.000503123 +++++++++to 0.000503123
Heightened Def Con from 0.000503123 ++++++++++++to 0.000503123
Heightened Def Con from 0.000503123 ++++++++++++to 0.000503123
Heightened Def Con from 0.000503123 ++++++++++++to 0.000503123
Heightened Def Con from 0.000503123 ++++++++++++to 0.000503123
Heightened Def Con from 0.000503123 ++++++++++++to 0.000503123
Heightened Def Con from 0.000503123 ++++++++++++to 0.000503123
Heightened Def Con from 0.000503123 ++++++++++++to 0.000503123
Heightened Def Con from 0.000503123 ++++++++++++to 0.000503123
Heightened Def Con from 0.000503123 ++++++++++++to 0.000503123
Heightened Def Con from 0.000503123 ++++++++++++to 0.000503123
Heightened Def Con from 0.000503123 ++++++++++++to 0.000503123
Heightened Def Con from 0.000503123 ++++++++++++to 0.000503123
Heightened Def Con from 0.000503123 ++++++++++++to 0.000503123
Heightened Def Con from 0.000503123 ++++++++++++to 0.000503123
Heightened Def Con from 0.000503123 ++++++++++++to 0.000503123
Heightened Def Con from 0.000503123 ++++++++++++to 0.000503123
Heightened Def Con from 0.000503123 ++++++++++++to 0.000503123
Heightened Def Con from 0.000503123 ++++++++++++to 0.000503123
Heightened Def Con from 0.000503123 ++++++++++++to 0.000503123
Heightened Def Con from 0.000503123 ++++++++++++to 0.000503123
Heightened Def Con from 0.000503123 +++++++++++to 0.000503123
Heightened Def Con from 0.000503123 ++++++++++++to 0.000503123
Heightened Def Con from 0.000503123 ++++++++++++to 0.000503123
Heightened Def Con from 0.000503123 +++++++to 0.000503123
Heightened Def Con from 0.000503123 +++++++to 0.000503123
Heightened Def Con from 0.000503123 ++++++++++++to 0.000503123
Heightened Def Con from 0.000503123 ++++++++++++to 0.000503123
Heightened Def Con from 0.000503123 ++++++++++++to 0.000503123
Heightened Def Con from 0.000503123 ++++++++++++to 0.000503123
Heightened Def Con from 0.000503123 ++++++++++++to 0.000503123
Heightened Def Con from 0.000503123 ++++++++++++to 0.000503123
Heightened Def Con from 0.000503123 ++++++++++++to 0.000503123
Heightened Def Con from 0.000503123 ++++++++++++to 0.000503123
Heightened Def Con from 0.000503123 ++++++++++++to 0.000503123
Heightened Def Con from 0.000503123 ++++++++++++to 0.000503123
Heightened Def Con from 0.000503123 ++++++++++++to 0.000503123
Heightened Def Con from 0.000503123 ++++++++++++to 0.000503123
Heightened Def Con from 0.000503123 ++++++++to 0.000503123
Heightened Def Con from 0.000503123 ++++++++to 0.000503123
Heightened Def Con from 0.000503123 ++++++++++++to 0.000503123
Heightened Def Con from 0.000503123 ++++++++to 0.000503123
Heightened Def Con from 0.000503123 ++++++++++++to 0.000503123
Heightened Def Con from 0.000503123 ++++++++++++to 0.000503123
Heightened Def Con from 0.000503123 ++++++++++++to 0.000503123
Heightened Def Con from 0.000503123 ++++++++++++to 0.000503123
Heightened Def Con from 0.000503123 ++++++++++++to 0.000503123
Heightened Def Con from 0.000503123 ++++++++++++to 0.000503123
Heightened Def Con from 0.000503123 ++++++++++++to 0.000503123
Heightened Def Con from 0.000503123 ++++++++++++to 0.000503123
Heightened Def Con from 0.000503123 +++++++++++++to 0.000503123
Heightened Def Con from 0.000503123 ++++++++++++to 0.000503123
Heightened Def Con from 0.000503123 +++++++++++++to 0.000503123
Heightened Def Con from 0.000503123 to 0.000503123

Date: Mon Sep 27 10:52:57 2021
Total elapsed time: 6.032 seconds.

tnom = 27
temp = 27
method = modified trap
totiter = 5031445
traniter = 5031445
tranpoints = 465147
accept = 51658
rejected = 454217
matrix size = 17
fillins = 0
solver = Normal
Matrix Compiler1:      34 opcodes  0.1/[0.1]/0.1
Matrix Compiler2: off  [0.1]/0.2/0.1

