Circuit: * D:\Documents\Github\PirateMIDI\Gizmos\zcd-sim.asc

WARNING: Less than two connections to node N002.  This node is used by V4.
Direct Newton iteration failed to find .op point.  (Use ".option noopiter" to skip.)
Starting Gmin stepping
Gmin = 10
Gmin = 1.07374
Gmin = 0.115292
Gmin = 0.0123794
Gmin = 0.00132923
Gmin = 0.000142725
Gmin = 1.5325e-005
Gmin = 1.6455e-006
Gmin = 1.76685e-007
Gmin = 1.89714e-008
Gmin = 2.03704e-009
Gmin = 2.18725e-010
Gmin = 2.34854e-011
Gmin = 2.52173e-012
Gmin = 2.70769e-013
Gmin = 0
Gmin stepping succeeded in finding the operating point.

Heightened Def Con from 3.40277e-006 ++++++++++++++++++++to 3.40279e-006
Heightened Def Con from 3.40279e-006 to 3.40279e-006
Heightened Def Con from 3.40279e-006 +++++++++++++++++++++to 3.40281e-006
Heightened Def Con from 3.40283e-006 to 3.40283e-006
Heightened Def Con from 3.40283e-006 +to 3.40283e-006
Heightened Def Con from 3.40283e-006 to 3.40283e-006
Heightened Def Con from 3.40283e-006 to 3.40283e-006
Heightened Def Con from 3.40283e-006 to 3.40283e-006
Heightened Def Con from 3.40283e-006 to 3.40283e-006
Heightened Def Con from 3.40283e-006 to 3.40283e-006
Heightened Def Con from 3.40283e-006 to 3.40283e-006
Heightened Def Con from 3.40283e-006 to 3.40283e-006
Heightened Def Con from 3.40283e-006 to 3.40283e-006
Heightened Def Con from 3.40283e-006 to 3.40283e-006
Heightened Def Con from 3.40283e-006 +++to 3.40283e-006
Heightened Def Con from 3.40283e-006 +++++to 3.40283e-006
Heightened Def Con from 3.40283e-006 +to 3.40283e-006
Heightened Def Con from 3.40283e-006 ++to 3.40283e-006
Heightened Def Con from 3.40283e-006 +to 3.40283e-006
Heightened Def Con from 3.40283e-006 +to 3.40283e-006
Heightened Def Con from 3.40283e-006 +++++to 3.40283e-006
Heightened Def Con from 3.40283e-006 ++++++++to 3.40283e-006
Heightened Def Con from 3.40283e-006 ++++++++to 3.40283e-006
Heightened Def Con from 3.40283e-006 ++to 3.40283e-006
Heightened Def Con from 3.40283e-006 to 3.40283e-006
Heightened Def Con from 3.40283e-006 +to 3.40283e-006
Heightened Def Con from 3.40283e-006 to 3.40283e-006
Heightened Def Con from 3.40283e-006 +++++++++++++++++++++to 3.40285e-006
Heightened Def Con from 3.40285e-006 to 3.40285e-006
Heightened Def Con from 3.40285e-006 +++to 3.40285e-006
Heightened Def Con from 3.40285e-006 ++++++++++++++++++++++to 3.40287e-006
Heightened Def Con from 3.40289e-006 +to 3.40289e-006
Heightened Def Con from 3.40289e-006 ++++++++++++++++++++++to 3.4029e-006
Heightened Def Con from 3.40291e-006 ++++++++++++++++++++++to 3.40292e-006
Heightened Def Con from 3.40293e-006 ++to 3.40293e-006
Heightened Def Con from 3.40293e-006 +to 3.40293e-006
Heightened Def Con from 3.40293e-006 ++++++++++++++++++++++to 3.40294e-006
Heightened Def Con from 3.40294e-006 to 3.40294e-006
Heightened Def Con from 3.40294e-006 +++++++++++++++++++++++to 3.40308e-006
Heightened Def Con from 3.40309e-006 to 3.40309e-006
Heightened Def Con from 3.40309e-006 +++++++++++++++++++++++to 3.40311e-006
Heightened Def Con from 3.40311e-006 +++++++++++++++++++++++to 3.40312e-006
Heightened Def Con from 3.40313e-006 ++++++++++++++++++++++++to 3.4035e-006
Heightened Def Con from 3.40351e-006 +++++++++++++++++++++++++to 3.40388e-006
Heightened Def Con from 3.40389e-006 +++++++++++++++++++++++++to 3.40426e-006
Heightened Def Con from 3.40427e-006 ++++++to 3.40427e-006
Heightened Def Con from 3.40427e-006 +to 3.40427e-006
Heightened Def Con from 3.40427e-006 ++++++++++++++++++++++++++to 3.40539e-006
Heightened Def Con from 3.4054e-006 ++++to 3.4054e-006
Heightened Def Con from 3.4054e-006 ++to 3.4054e-006
Heightened Def Con from 3.4054e-006 to 3.4054e-006
Heightened Def Con from 3.4054e-006 ++to 3.4054e-006
Heightened Def Con from 3.4054e-006 to 3.4054e-006
Heightened Def Con from 3.4054e-006 ++++++++++++++++++++++++++to 3.40566e-006
Heightened Def Con from 3.40566e-006 +++++to 3.40566e-006
Heightened Def Con from 3.40566e-006 to 3.40566e-006
Heightened Def Con from 3.40566e-006 +++++to 3.40566e-006
Heightened Def Con from 3.40566e-006 +++to 3.40566e-006
Heightened Def Con from 3.40566e-006 +++to 3.40566e-006
Heightened Def Con from 3.40566e-006 +++++++++++++++++++++++++++to 3.40779e-006
Heightened Def Con from 3.40779e-006 ++++++to 3.40779e-006
Heightened Def Con from 3.40779e-006 +++++++++++++++++++++++++++to 3.40792e-006
Heightened Def Con from 3.40792e-006 ++++++++++++++++++++++++++++to 3.41094e-006
Heightened Def Con from 0.000503126 to 0.000503126
Heightened Def Con from 0.000503126 to 0.000503126
Heightened Def Con from 0.000503126 to 0.000503126
Heightened Def Con from 0.000503126 to 0.000503126
Heightened Def Con from 0.000503126 ++to 0.000503126
Heightened Def Con from 0.000503126 ++to 0.000503126
Heightened Def Con from 0.000503126 +to 0.000503126
Heightened Def Con from 0.000503126 to 0.000503126
Heightened Def Con from 0.000503126 +to 0.000503126
Heightened Def Con from 0.000503126 to 0.000503126
Heightened Def Con from 0.000503126 to 0.000503126
Heightened Def Con from 0.000503126 +to 0.000503126
Heightened Def Con from 0.000503126 to 0.000503126
Heightened Def Con from 0.000503126 to 0.000503126
Heightened Def Con from 0.000503126 to 0.000503126
Heightened Def Con from 0.000503126 to 0.000503126
Heightened Def Con from 0.000503126 to 0.000503126
Heightened Def Con from 0.000503126 to 0.000503126
Heightened Def Con from 0.000503126 ++++to 0.000503126
Heightened Def Con from 0.000503126 ++++to 0.000503126
Heightened Def Con from 0.000503126 to 0.000503126
Heightened Def Con from 0.000503126 to 0.000503126
Heightened Def Con from 0.000503126 +++to 0.000503126
Heightened Def Con from 0.000503126 +++to 0.000503126
Heightened Def Con from 0.000503126 to 0.000503126
Heightened Def Con from 0.000503126 ++to 0.000503126
Heightened Def Con from 0.000503126 +++++to 0.000503126
Heightened Def Con from 0.000503126 to 0.000503126
Heightened Def Con from 0.000503126 ++to 0.000503126
Heightened Def Con from 0.000503126 +to 0.000503126
Heightened Def Con from 0.000503126 to 0.000503126
Heightened Def Con from 0.000503126 +to 0.000503126
Heightened Def Con from 0.000503126 +to 0.000503126
Heightened Def Con from 0.000503126 to 0.000503126
Heightened Def Con from 0.000503126 to 0.000503126
Heightened Def Con from 0.000503126 ++to 0.000503126
Heightened Def Con from 0.000503126 ++to 0.000503126
Heightened Def Con from 0.000503126 to 0.000503126
Heightened Def Con from 0.000503126 to 0.000503126
Heightened Def Con from 0.000503126 ++++to 0.000503126
Heightened Def Con from 0.000503126 to 0.000503126
Heightened Def Con from 0.000503126 to 0.000503126
Heightened Def Con from 0.000503126 to 0.000503126
Heightened Def Con from 0.000503126 +to 0.000503126
Heightened Def Con from 0.000503126 to 0.000503126
Heightened Def Con from 0.000503126 to 0.000503126
Heightened Def Con from 0.000503126 +to 0.000503126
Heightened Def Con from 0.000503126 to 0.000503126
Heightened Def Con from 0.000503126 to 0.000503126
Heightened Def Con from 0.000503126 ++to 0.000503126
Heightened Def Con from 0.000503126 +to 0.000503126
Heightened Def Con from 0.000503126 +to 0.000503126
Heightened Def Con from 0.000503126 to 0.000503126
Heightened Def Con from 0.000503126 +to 0.000503126
Heightened Def Con from 0.000503126 to 0.000503126
Heightened Def Con from 0.000503126 ++to 0.000503126
Heightened Def Con from 0.000503126 ++++++to 0.000503126
Heightened Def Con from 0.000503126 +to 0.000503126
Heightened Def Con from 0.000503126 +to 0.000503126
Heightened Def Con from 0.000503126 to 0.000503126
Heightened Def Con from 0.000503126 +to 0.000503126
Heightened Def Con from 0.000503126 to 0.000503126
Heightened Def Con from 0.000503126 ++to 0.000503126
Heightened Def Con from 0.000503126 to 0.000503126
Heightened Def Con from 0.000503126 +++++to 0.000503126
Heightened Def Con from 0.000503126 ++to 0.000503126
Heightened Def Con from 0.000503126 to 0.000503126
Heightened Def Con from 0.000503126 to 0.000503126
Heightened Def Con from 0.000503126 ++++to 0.000503126
Heightened Def Con from 0.000503126 to 0.000503126
Heightened Def Con from 0.000503126 to 0.000503126
Heightened Def Con from 0.000503126 to 0.000503126
Heightened Def Con from 0.000503126 +to 0.000503126
Heightened Def Con from 0.000503126 to 0.000503126
Heightened Def Con from 0.000503126 to 0.000503126
Heightened Def Con from 0.000503126 to 0.000503126
Heightened Def Con from 0.000503126 to 0.000503126
Heightened Def Con from 0.000503126 to 0.000503126
Heightened Def Con from 0.000503126 +to 0.000503126
Heightened Def Con from 0.000503126 to 0.000503126
Heightened Def Con from 0.000503126 to 0.000503126
Heightened Def Con from 0.000503126 to 0.000503126
Heightened Def Con from 0.000503126 +to 0.000503126
Heightened Def Con from 0.000503126 to 0.000503126
Heightened Def Con from 0.000503126 to 0.000503126
Heightened Def Con from 0.000503126 to 0.000503126
Heightened Def Con from 0.000503126 +++to 0.000503126
Heightened Def Con from 0.000503126 ++++to 0.000503126
Heightened Def Con from 0.000503126 ++to 0.000503126
Heightened Def Con from 0.000503126 ++to 0.000503126
Heightened Def Con from 0.000503126 to 0.000503126
Heightened Def Con from 0.000503126 to 0.000503126
Heightened Def Con from 0.000503126 to 0.000503126
Heightened Def Con from 0.000503126 ++++to 0.000503126
Heightened Def Con from 0.000503126 ++++to 0.000503126
Heightened Def Con from 0.000503126 +++to 0.000503126
Heightened Def Con from 0.000503126 to 0.000503126
Heightened Def Con from 0.000503126 to 0.000503126
Heightened Def Con from 0.000503126 +to 0.000503126
Heightened Def Con from 0.000503126 to 0.000503126
Heightened Def Con from 0.000503126 to 0.000503126
Heightened Def Con from 0.000503126 to 0.000503126
Heightened Def Con from 0.000503126 to 0.000503126
Heightened Def Con from 0.000503126 to 0.000503126
Heightened Def Con from 0.000503126 ++to 0.000503126
Heightened Def Con from 0.000503126 ++to 0.000503126
Heightened Def Con from 0.000503126 +to 0.000503126
Heightened Def Con from 0.000503126 ++++to 0.000503126
Heightened Def Con from 0.000503126 ++to 0.000503126
Heightened Def Con from 0.000503126 +to 0.000503126
Heightened Def Con from 0.000503126 ++to 0.000503126
Heightened Def Con from 0.000503126 to 0.000503126
Heightened Def Con from 0.000503126 ++to 0.000503126
Heightened Def Con from 0.000503126 +to 0.000503126
Heightened Def Con from 0.000503126 to 0.000503126
Heightened Def Con from 0.000503126 to 0.000503126
Heightened Def Con from 0.000503126 ++++to 0.000503126
Heightened Def Con from 0.000503126 to 0.000503126
Heightened Def Con from 0.000503126 ++to 0.000503126
Heightened Def Con from 0.000503126 to 0.000503126
Heightened Def Con from 0.000503126 to 0.000503126
Heightened Def Con from 0.000503126 ++++to 0.000503126
Heightened Def Con from 0.000503126 to 0.000503126
Heightened Def Con from 0.000503126 ++++to 0.000503126
Heightened Def Con from 0.000503126 ++++to 0.000503126
Heightened Def Con from 0.000503126 +++to 0.000503126
Heightened Def Con from 0.000503126 +to 0.000503126
Heightened Def Con from 0.000503126 to 0.000503126
Heightened Def Con from 0.000503126 +++to 0.000503126
Heightened Def Con from 0.000503126 ++to 0.000503126
Heightened Def Con from 0.000503126 ++to 0.000503126
Heightened Def Con from 0.000503126 +to 0.000503126
Heightened Def Con from 0.000503126 to 0.000503126
Heightened Def Con from 0.000503126 to 0.000503126
Heightened Def Con from 0.000503126 to 0.000503126
Heightened Def Con from 0.000503126 to 0.000503126
Heightened Def Con from 0.000503126 +++to 0.000503126
Heightened Def Con from 0.000503126 +to 0.000503126
Heightened Def Con from 0.000503126 +to 0.000503126
Heightened Def Con from 0.000503126 ++to 0.000503126
Heightened Def Con from 0.000503126 to 0.000503126
Heightened Def Con from 0.000503126 ++to 0.000503126
Heightened Def Con from 0.000503126 to 0.000503126
Heightened Def Con from 0.000503126 ++to 0.000503126
Heightened Def Con from 0.000503126 +++++to 0.000503126
Heightened Def Con from 0.000503126 to 0.000503126
Heightened Def Con from 0.000503126 +to 0.000503126
Heightened Def Con from 0.000503126 to 0.000503126
Heightened Def Con from 0.000503126 +++to 0.000503126
Heightened Def Con from 0.000503126 to 0.000503126
Heightened Def Con from 0.000503126 to 0.000503126
Heightened Def Con from 0.000503126 to 0.000503126
Heightened Def Con from 0.000503126 +to 0.000503126
Heightened Def Con from 0.000503126 to 0.000503126
Heightened Def Con from 0.000503126 ++++to 0.000503126
Heightened Def Con from 0.000503126 ++to 0.000503126
Heightened Def Con from 0.000503126 to 0.000503126
Heightened Def Con from 0.000503126 +to 0.000503126
Heightened Def Con from 0.000503126 to 0.000503126
Heightened Def Con from 0.000503126 to 0.000503126
Heightened Def Con from 0.000503126 to 0.000503126
Heightened Def Con from 0.000503126 ++to 0.000503126
Heightened Def Con from 0.000503126 ++++to 0.000503126
Heightened Def Con from 0.000503126 +to 0.000503126
Heightened Def Con from 0.000503126 to 0.000503126
Heightened Def Con from 0.000503126 ++++to 0.000503126
Heightened Def Con from 0.000503126 ++to 0.000503126
Heightened Def Con from 0.000503126 +++++++to 0.000503126
Heightened Def Con from 0.000503126 +++to 0.000503126
Heightened Def Con from 0.000503126 ++to 0.000503126
Heightened Def Con from 0.000503126 to 0.000503126
Heightened Def Con from 0.000503126 ++to 0.000503126
Heightened Def Con from 0.000503126 to 0.000503126
Heightened Def Con from 0.000503126 +to 0.000503126
Heightened Def Con from 0.000503126 ++++to 0.000503126
Heightened Def Con from 0.000503126 to 0.000503126
Heightened Def Con from 0.000503126 to 0.000503126
Heightened Def Con from 0.000503126 to 0.000503126
Heightened Def Con from 0.000503126 to 0.000503126
Heightened Def Con from 0.000503126 +to 0.000503126
Heightened Def Con from 0.000503126 to 0.000503126
Heightened Def Con from 0.000503126 to 0.000503126
Heightened Def Con from 0.000503126 +to 0.000503126
Heightened Def Con from 0.000503126 +to 0.000503126
Heightened Def Con from 0.000503126 +to 0.000503126
Heightened Def Con from 0.000503126 ++++to 0.000503126
Heightened Def Con from 0.000503126 to 0.000503126
Heightened Def Con from 0.000503126 ++++to 0.000503126
Heightened Def Con from 0.000503126 +to 0.000503126
Heightened Def Con from 0.000503126 to 0.000503126
Heightened Def Con from 0.000503126 to 0.000503126
Heightened Def Con from 0.000503126 to 0.000503126
Heightened Def Con from 0.000503126 +++to 0.000503126
Heightened Def Con from 0.000503126 ++++to 0.000503126
Heightened Def Con from 0.000503126 to 0.000503126
Heightened Def Con from 0.000503126 to 0.000503126
Heightened Def Con from 0.000503126 +to 0.000503126
Heightened Def Con from 0.000503126 +to 0.000503126
Heightened Def Con from 0.000503126 +to 0.000503126
Heightened Def Con from 0.000503126 +to 0.000503126
Heightened Def Con from 0.000503126 to 0.000503126
Heightened Def Con from 0.000503126 ++to 0.000503126
Heightened Def Con from 0.000503126 +++to 0.000503126
Heightened Def Con from 0.000503126 to 0.000503126
Heightened Def Con from 0.000503126 +++to 0.000503126
Heightened Def Con from 0.000503126 to 0.000503126
Heightened Def Con from 0.000503126 to 0.000503126
Heightened Def Con from 0.000503126 +to 0.000503126
Heightened Def Con from 0.000503126 ++++to 0.000503126
Heightened Def Con from 0.000503126 +to 0.000503126
Heightened Def Con from 0.000503126 to 0.000503126
Heightened Def Con from 0.000503126 ++++++to 0.000503126
Heightened Def Con from 0.000503126 to 0.000503126
Heightened Def Con from 0.000503126 ++++to 0.000503126
Heightened Def Con from 0.000503126 ++to 0.000503126
Heightened Def Con from 0.000503126 +to 0.000503126
Heightened Def Con from 0.000503126 +to 0.000503126
Heightened Def Con from 0.000503126 ++++to 0.000503126
Heightened Def Con from 0.000503126 to 0.000503126
Heightened Def Con from 0.000503126 to 0.000503126
Heightened Def Con from 0.000503126 +to 0.000503126
Heightened Def Con from 0.000503126 to 0.000503126
Heightened Def Con from 0.000503126 +++to 0.000503126
Heightened Def Con from 0.000503126 to 0.000503126
Heightened Def Con from 0.000503126 +to 0.000503126
Heightened Def Con from 0.000503126 +to 0.000503126
Heightened Def Con from 0.000503126 +to 0.000503126
Heightened Def Con from 0.000503126 to 0.000503126
Heightened Def Con from 0.000503126 +to 0.000503126
Heightened Def Con from 0.000503126 to 0.000503126
Heightened Def Con from 0.000503126 ++to 0.000503126
Heightened Def Con from 0.000503126 +++to 0.000503126
Heightened Def Con from 0.000503126 ++to 0.000503126
Heightened Def Con from 0.000503126 +to 0.000503126
Heightened Def Con from 0.000503126 +++to 0.000503126
Heightened Def Con from 0.000503126 +to 0.000503126
Heightened Def Con from 0.000503126 to 0.000503126
Heightened Def Con from 0.000503126 ++to 0.000503126
Heightened Def Con from 0.000503126 to 0.000503126
Heightened Def Con from 0.000503126 to 0.000503126
Heightened Def Con from 0.000503126 to 0.000503126
Heightened Def Con from 0.000503126 ++++to 0.000503126
Heightened Def Con from 0.000503126 ++++to 0.000503126
Heightened Def Con from 0.000503126 +to 0.000503126
Heightened Def Con from 0.000503126 to 0.000503126
Heightened Def Con from 0.000503126 ++to 0.000503126
Heightened Def Con from 0.000503126 to 0.000503126
Heightened Def Con from 0.000503126 +to 0.000503126
Heightened Def Con from 0.000503126 to 0.000503126
Heightened Def Con from 0.000503126 to 0.000503126
Heightened Def Con from 0.000503126 ++++++++to 0.000503126
Heightened Def Con from 0.000503126 to 0.000503126
Heightened Def Con from 0.000503126 to 0.000503126
Heightened Def Con from 0.000503126 ++++to 0.000503126
Heightened Def Con from 0.000503126 to 0.000503126
Heightened Def Con from 0.000503126 +to 0.000503126
Heightened Def Con from 0.000503126 to 0.000503126
Heightened Def Con from 0.000503126 +to 0.000503126
Heightened Def Con from 0.000503126 to 0.000503126
Heightened Def Con from 0.000503126 to 0.000503126
Heightened Def Con from 0.000503126 to 0.000503126
Heightened Def Con from 0.000503126 ++++to 0.000503126
Heightened Def Con from 0.000503126 to 0.000503126
Heightened Def Con from 0.000503126 ++++++to 0.000503126
Heightened Def Con from 0.000503126 +++++to 0.000503126
Heightened Def Con from 0.000503126 ++++++to 0.000503126
Heightened Def Con from 0.000503126 +++to 0.000503126
Heightened Def Con from 0.000503126 to 0.000503126
Heightened Def Con from 0.000503126 ++++++to 0.000503126
Heightened Def Con from 0.000503126 +to 0.000503126
Heightened Def Con from 0.000503126 ++to 0.000503126
Heightened Def Con from 0.000503126 to 0.000503126
Heightened Def Con from 0.000503126 to 0.000503126
Heightened Def Con from 0.000503126 to 0.000503126
Heightened Def Con from 0.000503126 +++++++to 0.000503126
Heightened Def Con from 0.000503126 to 0.000503126
Heightened Def Con from 0.000503126 ++to 0.000503126
Heightened Def Con from 0.000503126 to 0.000503126
Heightened Def Con from 0.000503126 to 0.000503126
Heightened Def Con from 0.000503126 +++to 0.000503126
Heightened Def Con from 0.000503126 to 0.000503126
Heightened Def Con from 0.000503126 +to 0.000503126
Heightened Def Con from 0.000503126 +++to 0.000503126
Heightened Def Con from 0.000503126 ++++to 0.000503126
Heightened Def Con from 0.000503126 +++++++++to 0.000503126
Heightened Def Con from 0.000503126 to 0.000503126
Heightened Def Con from 0.000503126 to 0.000503126
Heightened Def Con from 0.000503126 to 0.000503126
Heightened Def Con from 0.000503126 to 0.000503126
Heightened Def Con from 0.000503126 +to 0.000503126
Heightened Def Con from 0.000503126 to 0.000503126
Heightened Def Con from 0.000503126 to 0.000503126
Heightened Def Con from 0.000503126 ++to 0.000503126
Heightened Def Con from 0.000503126 +to 0.000503126
Heightened Def Con from 0.000503126 to 0.000503126
Heightened Def Con from 0.000503126 to 0.000503126
Heightened Def Con from 0.000503126 to 0.000503126
Heightened Def Con from 0.000503126 +++++to 0.000503126
Heightened Def Con from 0.000503126 to 0.000503126
Heightened Def Con from 0.000503126 to 0.000503126
Heightened Def Con from 0.000503126 +++to 0.000503126
Heightened Def Con from 0.000503126 ++to 0.000503126
Heightened Def Con from 0.000503126 to 0.000503126
Heightened Def Con from 0.000503126 +to 0.000503126
Heightened Def Con from 0.000503126 to 0.000503126
Heightened Def Con from 0.000503126 to 0.000503126
Heightened Def Con from 0.000503126 to 0.000503126
Heightened Def Con from 0.000503126 to 0.000503126
Heightened Def Con from 0.000503126 ++to 0.000503126
Heightened Def Con from 0.000503126 to 0.000503126
Heightened Def Con from 0.000503126 +to 0.000503126
Heightened Def Con from 0.000503126 to 0.000503126
Heightened Def Con from 0.000503126 +to 0.000503126
Heightened Def Con from 0.000503126 +++++to 0.000503126
Heightened Def Con from 0.000503126 to 0.000503126
Heightened Def Con from 0.000503126 ++to 0.000503126
Heightened Def Con from 0.000503126 +to 0.000503126
Heightened Def Con from 0.000503126 to 0.000503126
Heightened Def Con from 0.000503126 ++++to 0.000503126
Heightened Def Con from 0.000503126 +to 0.000503126
Heightened Def Con from 0.000503126 +to 0.000503126
Heightened Def Con from 0.000503126 +++++to 0.000503126
Heightened Def Con from 0.000503126 +++++++to 0.000503126
Heightened Def Con from 0.000503126 to 0.000503126
Heightened Def Con from 0.000503126 +++to 0.000503126
Heightened Def Con from 0.000503126 to 0.000503126
Heightened Def Con from 0.000503126 +++to 0.000503126
Heightened Def Con from 0.000503126 +++to 0.000503126
Heightened Def Con from 0.000503126 +++++to 0.000503126
Heightened Def Con from 0.000503126 +++to 0.000503126
Heightened Def Con from 0.000503126 ++to 0.000503126
Heightened Def Con from 0.000503126 ++to 0.000503126
Heightened Def Con from 0.000503126 to 0.000503126
Heightened Def Con from 0.000503126 to 0.000503126
Heightened Def Con from 0.000503126 to 0.000503126
Heightened Def Con from 0.000503126 to 0.000503126
Heightened Def Con from 0.000503126 to 0.000503126
Heightened Def Con from 0.000503126 +++to 0.000503126
Heightened Def Con from 0.000503126 ++to 0.000503126
Heightened Def Con from 0.000503126 +++to 0.000503126
Heightened Def Con from 0.000503126 +++to 0.000503126
Heightened Def Con from 0.000503126 ++++to 0.000503126
Heightened Def Con from 0.000503126 ++to 0.000503126
Heightened Def Con from 0.000503126 to 0.000503126
Heightened Def Con from 0.000503126 to 0.000503126
Heightened Def Con from 0.000503126 to 0.000503126
Heightened Def Con from 0.000503126 to 0.000503126
Heightened Def Con from 0.000503126 +to 0.000503126
Heightened Def Con from 0.000503126 ++to 0.000503126
Heightened Def Con from 0.000503126 +to 0.000503126
Heightened Def Con from 0.000503126 +++to 0.000503126
Heightened Def Con from 0.000503126 +to 0.000503126
Heightened Def Con from 0.000503126 to 0.000503126
Heightened Def Con from 0.000503126 to 0.000503126
Heightened Def Con from 0.000503126 +to 0.000503126
Heightened Def Con from 0.000503126 to 0.000503126
Heightened Def Con from 0.000503126 +++to 0.000503126
Heightened Def Con from 0.000503126 to 0.000503126
Heightened Def Con from 0.000503126 +to 0.000503126
Heightened Def Con from 0.000503126 +++++++++to 0.000503126
Heightened Def Con from 0.000503126 to 0.000503126
Heightened Def Con from 0.000503126 to 0.000503126
Heightened Def Con from 0.000503126 +to 0.000503126
Heightened Def Con from 0.000503126 to 0.000503126
Heightened Def Con from 0.000503126 to 0.000503126
Heightened Def Con from 0.000503126 to 0.000503126
Heightened Def Con from 0.000503126 to 0.000503126
Heightened Def Con from 0.000503126 to 0.000503126
Heightened Def Con from 0.000503126 +++++to 0.000503126
Heightened Def Con from 0.000503126 to 0.000503126
Heightened Def Con from 0.000503126 +++to 0.000503126
Heightened Def Con from 0.000503126 +to 0.000503126
Heightened Def Con from 0.000503126 ++++to 0.000503126
Heightened Def Con from 0.000503126 to 0.000503126
Heightened Def Con from 0.000503126 +++to 0.000503126
Heightened Def Con from 0.000503126 to 0.000503126
Heightened Def Con from 0.000503126 to 0.000503126
Heightened Def Con from 0.000503126 ++to 0.000503126
Heightened Def Con from 0.000503126 to 0.000503126
Heightened Def Con from 0.000503126 +to 0.000503126
Heightened Def Con from 0.000503126 to 0.000503126
Heightened Def Con from 0.000503126 ++to 0.000503126
Heightened Def Con from 0.000503126 to 0.000503126
Heightened Def Con from 0.000503126 to 0.000503126
Heightened Def Con from 0.000503126 ++to 0.000503126
Heightened Def Con from 0.000503126 ++to 0.000503126
Heightened Def Con from 0.000503126 ++to 0.000503126
Heightened Def Con from 0.000503126 to 0.000503126
Heightened Def Con from 0.000503126 +to 0.000503126
Heightened Def Con from 0.000503126 to 0.000503126
Heightened Def Con from 0.000503126 to 0.000503126
Heightened Def Con from 0.000503126 to 0.000503126
Heightened Def Con from 0.000503126 to 0.000503126
Heightened Def Con from 0.000503126 +to 0.000503126
Heightened Def Con from 0.000503126 +to 0.000503126
Heightened Def Con from 0.000503126 +++to 0.000503126
Heightened Def Con from 0.000503126 to 0.000503126
Heightened Def Con from 0.000503126 ++++to 0.000503126
Heightened Def Con from 0.000503126 +to 0.000503126
Heightened Def Con from 0.000503126 +++to 0.000503126
Heightened Def Con from 0.000503126 to 0.000503126
Heightened Def Con from 0.000503126 +++to 0.000503126
Heightened Def Con from 0.000503126 ++to 0.000503126
Heightened Def Con from 0.000503126 ++++to 0.000503126
Heightened Def Con from 0.000503126 +++to 0.000503126
Heightened Def Con from 0.000503126 ++++to 0.000503126
Heightened Def Con from 0.000503126 ++++to 0.000503126
Heightened Def Con from 0.000503126 to 0.000503126
Heightened Def Con from 0.000503126 to 0.000503126
Heightened Def Con from 0.000503126 ++to 0.000503126
Heightened Def Con from 0.000503126 +++++to 0.000503126
Heightened Def Con from 0.000503126 to 0.000503126
Heightened Def Con from 0.000503126 to 0.000503126
Heightened Def Con from 0.000503126 to 0.000503126
Heightened Def Con from 0.000503126 ++++to 0.000503126
Heightened Def Con from 0.000503126 +to 0.000503126
Heightened Def Con from 0.000503126 ++++to 0.000503126
Heightened Def Con from 0.000503126 to 0.000503126
Heightened Def Con from 0.000503126 to 0.000503126
Heightened Def Con from 0.000503126 +++to 0.000503126
Heightened Def Con from 0.000503126 to 0.000503126
Heightened Def Con from 0.000503126 to 0.000503126
Heightened Def Con from 0.000503126 +to 0.000503126
Heightened Def Con from 0.000503126 to 0.000503126
Heightened Def Con from 0.000503126 ++++++to 0.000503126
Heightened Def Con from 0.000503126 ++to 0.000503126
Heightened Def Con from 0.000503126 to 0.000503126
Heightened Def Con from 0.000503126 +to 0.000503126
Heightened Def Con from 0.000503126 ++to 0.000503126
Heightened Def Con from 0.000503126 +to 0.000503126
Heightened Def Con from 0.000503126 to 0.000503126
Heightened Def Con from 0.000503126 to 0.000503126
Heightened Def Con from 0.000503126 +to 0.000503126
Heightened Def Con from 0.000503126 ++++to 0.000503126
Heightened Def Con from 0.000503126 +++to 0.000503126
Heightened Def Con from 0.000503126 to 0.000503126
Heightened Def Con from 0.000503126 to 0.000503126
Heightened Def Con from 0.000503126 ++++to 0.000503126
Heightened Def Con from 0.000503126 to 0.000503126
Heightened Def Con from 0.000503126 to 0.000503126
Heightened Def Con from 0.000503126 ++to 0.000503126
Heightened Def Con from 0.000503126 ++to 0.000503126
Heightened Def Con from 0.000503126 to 0.000503126
Heightened Def Con from 0.000503126 +to 0.000503126
Heightened Def Con from 0.000503126 +to 0.000503126
Heightened Def Con from 0.000503126 to 0.000503126
Heightened Def Con from 0.000503126 to 0.000503126
Heightened Def Con from 0.000503126 +++to 0.000503126
Heightened Def Con from 0.000503126 +to 0.000503126
Heightened Def Con from 0.000503126 to 0.000503126
Heightened Def Con from 0.000503126 +to 0.000503126
Heightened Def Con from 0.000503126 to 0.000503126
Heightened Def Con from 0.000503126 +++to 0.000503126
Heightened Def Con from 0.000503126 to 0.000503126
Heightened Def Con from 0.000503126 to 0.000503126
Heightened Def Con from 0.000503126 ++to 0.000503126
Heightened Def Con from 0.000503126 +to 0.000503126
Heightened Def Con from 0.000503126 +++to 0.000503126
Heightened Def Con from 0.000503126 +to 0.000503126
Heightened Def Con from 0.000503126 to 0.000503126
Heightened Def Con from 0.000503126 ++to 0.000503126
Heightened Def Con from 0.000503126 +++to 0.000503126
Heightened Def Con from 0.000503126 to 0.000503126
Heightened Def Con from 0.000503126 to 0.000503126
Heightened Def Con from 0.000503126 to 0.000503126
Heightened Def Con from 0.000503126 +++to 0.000503126
Heightened Def Con from 0.000503126 to 0.000503126
Heightened Def Con from 0.000503126 to 0.000503126
Heightened Def Con from 0.000503126 ++to 0.000503126
Heightened Def Con from 0.000503126 to 0.000503126
Heightened Def Con from 0.000503126 to 0.000503126
Heightened Def Con from 0.000503126 to 0.000503126
Heightened Def Con from 0.000503126 +++++to 0.000503126
Heightened Def Con from 0.000503126 +to 0.000503126
Heightened Def Con from 0.000503126 +to 0.000503126
Heightened Def Con from 0.000503126 to 0.000503126
Heightened Def Con from 0.000503126 to 0.000503126
Heightened Def Con from 0.000503126 to 0.000503126
Heightened Def Con from 0.000503126 +to 0.000503126
Heightened Def Con from 0.000503126 ++to 0.000503126
Heightened Def Con from 0.000503126 to 0.000503126
Heightened Def Con from 0.000503126 ++++++to 0.000503126
Heightened Def Con from 0.000503126 +to 0.000503126
Heightened Def Con from 0.000503126 to 0.000503126
Heightened Def Con from 0.000503126 to 0.000503126
Heightened Def Con from 0.000503126 to 0.000503126
Heightened Def Con from 0.000503126 to 0.000503126
Heightened Def Con from 0.000503126 to 0.000503126
Heightened Def Con from 0.000503126 to 0.000503126
Heightened Def Con from 0.000503126 to 0.000503126
Heightened Def Con from 0.000503126 +to 0.000503126
Heightened Def Con from 0.000503126 to 0.000503126
Heightened Def Con from 0.000503126 +to 0.000503126
Heightened Def Con from 0.000503126 to 0.000503126
Heightened Def Con from 0.000503126 to 0.000503126
Heightened Def Con from 0.000503126 to 0.000503126
Heightened Def Con from 0.000503126 +++to 0.000503126
Heightened Def Con from 0.000503126 ++to 0.000503126
Heightened Def Con from 0.000503126 ++to 0.000503126
Heightened Def Con from 0.000503126 to 0.000503126
Heightened Def Con from 0.000503126 +to 0.000503126
Heightened Def Con from 0.000503126 to 0.000503126
Heightened Def Con from 0.000503126 to 0.000503126
Heightened Def Con from 0.000503126 +++to 0.000503126
Heightened Def Con from 0.000503126 to 0.000503126
Heightened Def Con from 0.000503126 +to 0.000503126
Heightened Def Con from 0.000503126 +++++to 0.000503126
Heightened Def Con from 0.000503126 to 0.000503126
Heightened Def Con from 0.000503126 ++++to 0.000503126
Heightened Def Con from 0.000503126 +++to 0.000503126
Heightened Def Con from 0.000503126 to 0.000503126
Heightened Def Con from 0.000503126 to 0.000503126
Heightened Def Con from 0.000503126 to 0.000503126
Heightened Def Con from 0.000503126 to 0.000503126
Heightened Def Con from 0.000503126 +to 0.000503126
Heightened Def Con from 0.000503126 to 0.000503126
Heightened Def Con from 0.000503126 to 0.000503126
Heightened Def Con from 0.000503126 to 0.000503126
Heightened Def Con from 0.000503126 ++to 0.000503126
Heightened Def Con from 0.000503126 to 0.000503126
Heightened Def Con from 0.000503126 to 0.000503126
Heightened Def Con from 0.000503126 +++to 0.000503126
Heightened Def Con from 0.000503126 to 0.000503126
Heightened Def Con from 0.000503126 +to 0.000503126
Heightened Def Con from 0.000503126 to 0.000503126
Heightened Def Con from 0.000503126 +to 0.000503126
Heightened Def Con from 0.000503126 +++++to 0.000503126
Heightened Def Con from 0.000503126 +++to 0.000503126
Heightened Def Con from 0.000503126 ++to 0.000503126
Heightened Def Con from 0.000503126 +to 0.000503126
Heightened Def Con from 0.000503126 to 0.000503126
Heightened Def Con from 0.000503126 ++to 0.000503126
Heightened Def Con from 0.000503126 +to 0.000503126
Heightened Def Con from 0.000503126 to 0.000503126
Heightened Def Con from 0.000503126 ++++to 0.000503126
Heightened Def Con from 0.000503126 +to 0.000503126
Heightened Def Con from 0.000503126 +to 0.000503126
Heightened Def Con from 0.000503126 +to 0.000503126
Heightened Def Con from 0.000503126 to 0.000503126
Heightened Def Con from 0.000503126 to 0.000503126
Heightened Def Con from 0.000503126 to 0.000503126
Heightened Def Con from 0.000503126 +to 0.000503126
Heightened Def Con from 0.000503126 to 0.000503126
Heightened Def Con from 0.000503126 ++to 0.000503126
Heightened Def Con from 0.000503126 to 0.000503126
Heightened Def Con from 0.000503126 ++++to 0.000503126
Heightened Def Con from 0.000503126 to 0.000503126
Heightened Def Con from 0.000503126 ++to 0.000503126
Heightened Def Con from 0.000503126 to 0.000503126
Heightened Def Con from 0.000503126 to 0.000503126
Heightened Def Con from 0.000503126 to 0.000503126
Heightened Def Con from 0.000503126 to 0.000503126
Heightened Def Con from 0.000503126 to 0.000503126
Heightened Def Con from 0.000503126 ++++to 0.000503126
Heightened Def Con from 0.000503126 to 0.000503126
Heightened Def Con from 0.000503126 ++to 0.000503126
Heightened Def Con from 0.000503126 +++++to 0.000503126
Heightened Def Con from 0.000503126 ++to 0.000503126
Heightened Def Con from 0.000503126 +++to 0.000503126
Heightened Def Con from 0.000503126 to 0.000503126
Heightened Def Con from 0.000503126 to 0.000503126
Heightened Def Con from 0.000503126 to 0.000503126
Heightened Def Con from 0.000503126 to 0.000503126
Heightened Def Con from 0.000503126 ++to 0.000503126
Heightened Def Con from 0.000503126 +to 0.000503126
Heightened Def Con from 0.000503126 +to 0.000503126
Heightened Def Con from 0.000503126 +++++to 0.000503126
Heightened Def Con from 0.000503126 to 0.000503126
Heightened Def Con from 0.000503126 +to 0.000503126
Heightened Def Con from 0.000503126 ++to 0.000503126
Heightened Def Con from 0.000503126 +to 0.000503126
Heightened Def Con from 0.000503126 to 0.000503126
Heightened Def Con from 0.000503126 to 0.000503126
Heightened Def Con from 0.000503126 to 0.000503126
Heightened Def Con from 0.000503126 +to 0.000503126
Heightened Def Con from 0.000503126 ++to 0.000503126
Heightened Def Con from 0.000503126 +to 0.000503126
Heightened Def Con from 0.000503126 ++to 0.000503126
Heightened Def Con from 0.000503126 to 0.000503126
Heightened Def Con from 0.000503126 to 0.000503126
Heightened Def Con from 0.000503126 to 0.000503126
Heightened Def Con from 0.000503126 to 0.000503126
Heightened Def Con from 0.000503126 +++to 0.000503126
Heightened Def Con from 0.000503126 +to 0.000503126
Heightened Def Con from 0.000503126 ++to 0.000503126
Heightened Def Con from 0.000503126 ++++++++to 0.000503126
Heightened Def Con from 0.000503126 +to 0.000503126
Heightened Def Con from 0.000503126 ++to 0.000503126
Heightened Def Con from 0.000503126 to 0.000503126
Heightened Def Con from 0.000503126 ++to 0.000503126
Heightened Def Con from 0.000503126 ++to 0.000503126
Heightened Def Con from 0.000503126 to 0.000503126
Heightened Def Con from 0.000503126 to 0.000503126
Heightened Def Con from 0.000503126 to 0.000503126
Heightened Def Con from 0.000503126 to 0.000503126
Heightened Def Con from 0.000503126 to 0.000503126
Heightened Def Con from 0.000503126 +to 0.000503126
Heightened Def Con from 0.000503126 ++++to 0.000503126
Heightened Def Con from 0.000503126 to 0.000503126
Heightened Def Con from 0.000503126 +to 0.000503126
Heightened Def Con from 0.000503126 +to 0.000503126
Heightened Def Con from 0.000503126 to 0.000503126
Heightened Def Con from 0.000503126 to 0.000503126
Heightened Def Con from 0.000503126 +to 0.000503126
Heightened Def Con from 0.000503126 +++++to 0.000503126
Heightened Def Con from 0.000503126 ++to 0.000503126
Heightened Def Con from 0.000503126 ++++to 0.000503126
Heightened Def Con from 0.000503126 to 0.000503126
Heightened Def Con from 0.000503126 to 0.000503126
Heightened Def Con from 0.000503126 to 0.000503126
Heightened Def Con from 0.000503126 +++++to 0.000503126
Heightened Def Con from 0.000503126 +to 0.000503126
Heightened Def Con from 0.000503126 +to 0.000503126
Heightened Def Con from 0.000503126 to 0.000503126
Heightened Def Con from 0.000503126 to 0.000503126
Heightened Def Con from 0.000503126 to 0.000503126
Heightened Def Con from 0.000503126 to 0.000503126
Heightened Def Con from 0.000503126 ++to 0.000503126
Heightened Def Con from 0.000503126 +to 0.000503126
Heightened Def Con from 0.000503126 to 0.000503126
Heightened Def Con from 0.000503126 +++++to 0.000503126
Heightened Def Con from 0.000503126 to 0.000503126
Heightened Def Con from 0.000503126 +to 0.000503126
Heightened Def Con from 0.000503126 to 0.000503126
Heightened Def Con from 0.000503126 to 0.000503126
Heightened Def Con from 0.000503126 ++to 0.000503126
Heightened Def Con from 0.000503126 ++to 0.000503126
Heightened Def Con from 0.000503126 to 0.000503126
Heightened Def Con from 0.000503126 to 0.000503126
Heightened Def Con from 0.000503126 +to 0.000503126
Heightened Def Con from 0.000503126 to 0.000503126
Heightened Def Con from 0.000503126 to 0.000503126
Heightened Def Con from 0.000503126 +to 0.000503126
Heightened Def Con from 0.000503126 to 0.000503126
Heightened Def Con from 0.000503126 +++++to 0.000503126
Heightened Def Con from 0.000503126 +to 0.000503126
Heightened Def Con from 0.000503126 to 0.000503126
Heightened Def Con from 0.000503126 +++to 0.000503126
Heightened Def Con from 0.000503126 to 0.000503126
Heightened Def Con from 0.000503126 to 0.000503126
Heightened Def Con from 0.000503126 to 0.000503126
Heightened Def Con from 0.000503126 ++to 0.000503126
Heightened Def Con from 0.000503126 ++to 0.000503126
Heightened Def Con from 0.000503126 +++++++to 0.000503126
Heightened Def Con from 0.000503126 to 0.000503126
Heightened Def Con from 0.000503126 +++++++to 0.000503126
Heightened Def Con from 0.000503126 to 0.000503126
Heightened Def Con from 0.000503126 to 0.000503126
Heightened Def Con from 0.000503126 to 0.000503126
Heightened Def Con from 0.000503126 +to 0.000503126
Heightened Def Con from 0.000503126 +to 0.000503126
Heightened Def Con from 0.000503126 ++to 0.000503126
Heightened Def Con from 0.000503126 to 0.000503126
Heightened Def Con from 0.000503126 +++++to 0.000503126
Heightened Def Con from 0.000503126 to 0.000503126
Heightened Def Con from 0.000503126 to 0.000503126
Heightened Def Con from 0.000503126 to 0.000503126
Heightened Def Con from 0.000503126 to 0.000503126
Heightened Def Con from 0.000503126 ++++to 0.000503126
Heightened Def Con from 0.000503126 to 0.000503126
Heightened Def Con from 0.000503126 to 0.000503126
Heightened Def Con from 0.000503126 to 0.000503126
Heightened Def Con from 0.000503126 +to 0.000503126
Heightened Def Con from 0.000503126 +++++to 0.000503126
Heightened Def Con from 0.000503126 ++++++to 0.000503126
Heightened Def Con from 0.000503126 to 0.000503126
Heightened Def Con from 0.000503126 +to 0.000503126
Heightened Def Con from 0.000503126 +++to 0.000503126
Heightened Def Con from 0.000503126 to 0.000503126
Heightened Def Con from 0.000503126 to 0.000503126
Heightened Def Con from 0.000503126 +to 0.000503126
Heightened Def Con from 0.000503126 to 0.000503126
Heightened Def Con from 0.000503126 to 0.000503126
Heightened Def Con from 0.000503126 to 0.000503126
Heightened Def Con from 0.000503126 to 0.000503126
Heightened Def Con from 0.000503126 to 0.000503126
Heightened Def Con from 0.000503126 to 0.000503126
Heightened Def Con from 0.000503126 to 0.000503126
Heightened Def Con from 0.000503126 ++to 0.000503126
Heightened Def Con from 0.000503126 +to 0.000503126
Heightened Def Con from 0.000503126 to 0.000503126
Heightened Def Con from 0.000503126 +to 0.000503126
Heightened Def Con from 0.000503126 to 0.000503126
Heightened Def Con from 0.000503126 ++to 0.000503126
Heightened Def Con from 0.000503126 to 0.000503126
Heightened Def Con from 0.000503126 +++to 0.000503126
Heightened Def Con from 0.000503126 +++to 0.000503126
Heightened Def Con from 0.000503126 ++to 0.000503126
Heightened Def Con from 0.000503126 ++++to 0.000503126
Heightened Def Con from 0.000503126 to 0.000503126
Heightened Def Con from 0.000503126 +to 0.000503126
Heightened Def Con from 0.000503126 to 0.000503126
Heightened Def Con from 0.000503126 to 0.000503126
Heightened Def Con from 0.000503126 ++to 0.000503126
Heightened Def Con from 0.000503126 ++++to 0.000503126
Heightened Def Con from 0.000503126 +to 0.000503126
Heightened Def Con from 0.000503126 +++to 0.000503126
Heightened Def Con from 0.000503126 +++to 0.000503126
Heightened Def Con from 0.000503126 to 0.000503126
Heightened Def Con from 0.000503126 to 0.000503126
Heightened Def Con from 0.000503126 ++++++to 0.000503126
Heightened Def Con from 0.000503126 ++to 0.000503126
Heightened Def Con from 0.000503126 to 0.000503126
Heightened Def Con from 0.000503126 +++to 0.000503126
Heightened Def Con from 0.000503126 to 0.000503126
Heightened Def Con from 0.000503126 to 0.000503126
Heightened Def Con from 0.000503126 +to 0.000503126
Heightened Def Con from 0.000503126 +to 0.000503126
Heightened Def Con from 0.000503126 to 0.000503126
Heightened Def Con from 0.000503126 ++to 0.000503126
Heightened Def Con from 0.000503126 +to 0.000503126
Heightened Def Con from 0.000503126 to 0.000503126
Heightened Def Con from 0.000503126 +++++to 0.000503126
Heightened Def Con from 0.000503126 to 0.000503126
Heightened Def Con from 0.000503126 to 0.000503126
Heightened Def Con from 0.000503126 +++to 0.000503126
Heightened Def Con from 0.000503126 to 0.000503126
Heightened Def Con from 0.000503126 to 0.000503126
Heightened Def Con from 0.000503126 ++to 0.000503126
Heightened Def Con from 0.000503126 +to 0.000503126
Heightened Def Con from 0.000503126 ++++to 0.000503126
Heightened Def Con from 0.000503126 ++to 0.000503126
Heightened Def Con from 0.000503126 +to 0.000503126
Heightened Def Con from 0.000503126 to 0.000503126
Heightened Def Con from 0.000503126 ++to 0.000503126
Heightened Def Con from 0.000503126 to 0.000503126
Heightened Def Con from 0.000503126 ++to 0.000503126
Heightened Def Con from 0.000503126 to 0.000503126
Heightened Def Con from 0.000503126 to 0.000503126
Heightened Def Con from 0.000503126 to 0.000503126
Heightened Def Con from 0.000503126 to 0.000503126
Heightened Def Con from 0.000503126 to 0.000503126
Heightened Def Con from 0.000503126 to 0.000503126
Heightened Def Con from 0.000503126 to 0.000503126
Heightened Def Con from 0.000503126 to 0.000503126
Heightened Def Con from 0.000503126 +++to 0.000503126
Heightened Def Con from 0.000503126 to 0.000503126
Heightened Def Con from 0.000503126 to 0.000503126
Heightened Def Con from 0.000503126 to 0.000503126
Heightened Def Con from 0.000503126 ++to 0.000503126
Heightened Def Con from 0.000503126 to 0.000503126
Heightened Def Con from 0.000503126 +++++++to 0.000503126
Heightened Def Con from 0.000503126 to 0.000503126
Heightened Def Con from 0.000503126 +to 0.000503126
Heightened Def Con from 0.000503126 ++to 0.000503126
Heightened Def Con from 0.000503126 to 0.000503126
Heightened Def Con from 0.000503126 +to 0.000503126
Heightened Def Con from 0.000503126 ++++to 0.000503126
Heightened Def Con from 0.000503126 +++to 0.000503126
Heightened Def Con from 0.000503126 +to 0.000503126
Heightened Def Con from 0.000503126 to 0.000503126
Heightened Def Con from 0.000503126 to 0.000503126
Heightened Def Con from 0.000503126 +to 0.000503126
Heightened Def Con from 0.000503126 to 0.000503126
Heightened Def Con from 0.000503126 to 0.000503126
Heightened Def Con from 0.000503126 +to 0.000503126
Heightened Def Con from 0.000503126 +++to 0.000503126
Heightened Def Con from 0.000503126 +to 0.000503126
Heightened Def Con from 0.000503126 ++to 0.000503126
Heightened Def Con from 0.000503126 +++++to 0.000503126
Heightened Def Con from 0.000503126 +to 0.000503126
Heightened Def Con from 0.000503126 +to 0.000503126
Heightened Def Con from 0.000503126 ++++++to 0.000503126
Heightened Def Con from 0.000503126 ++++++++to 0.000503126
Heightened Def Con from 0.000503126 +++to 0.000503126
Heightened Def Con from 0.000503126 to 0.000503126
Heightened Def Con from 0.000503126 to 0.000503126
Heightened Def Con from 0.000503126 to 0.000503126
Heightened Def Con from 0.000503126 +to 0.000503126
Heightened Def Con from 0.000503126 to 0.000503126
Heightened Def Con from 0.000503126 to 0.000503126
Heightened Def Con from 0.000503126 to 0.000503126
Heightened Def Con from 0.000503126 to 0.000503126
Heightened Def Con from 0.000503126 ++++to 0.000503126
Heightened Def Con from 0.000503126 ++to 0.000503126
Heightened Def Con from 0.000503126 +to 0.000503126
Heightened Def Con from 0.000503126 to 0.000503126
Heightened Def Con from 0.000503126 +to 0.000503126
Heightened Def Con from 0.000503126 to 0.000503126
Heightened Def Con from 0.000503126 to 0.000503126
Heightened Def Con from 0.000503126 ++to 0.000503126
Heightened Def Con from 0.000503126 +to 0.000503126
Heightened Def Con from 0.000503126 to 0.000503126
Heightened Def Con from 0.000503126 +to 0.000503126
Heightened Def Con from 0.000503126 to 0.000503126
Heightened Def Con from 0.000503126 to 0.000503126
Heightened Def Con from 0.000503126 to 0.000503126
Heightened Def Con from 0.000503126 to 0.000503126
Heightened Def Con from 0.000503126 to 0.000503126
Heightened Def Con from 0.000503126 to 0.000503126
Heightened Def Con from 0.000503126 to 0.000503126
Heightened Def Con from 0.000503126 ++to 0.000503126
Heightened Def Con from 0.000503126 ++to 0.000503126
Heightened Def Con from 0.000503126 ++to 0.000503126
Heightened Def Con from 0.000503126 to 0.000503126
Heightened Def Con from 0.000503126 +to 0.000503126
Heightened Def Con from 0.000503126 ++to 0.000503126
Heightened Def Con from 0.000503126 to 0.000503126
Heightened Def Con from 0.000503126 +to 0.000503126
Heightened Def Con from 0.000503126 ++++to 0.000503126
Heightened Def Con from 0.000503126 ++to 0.000503126
Heightened Def Con from 0.000503126 to 0.000503126
Heightened Def Con from 0.000503126 to 0.000503126
Heightened Def Con from 0.000503126 ++to 0.000503126
Heightened Def Con from 0.000503126 ++++++to 0.000503126
Heightened Def Con from 0.000503126 ++to 0.000503126
Heightened Def Con from 0.000503126 to 0.000503126
Heightened Def Con from 0.000503126 ++to 0.000503126
Heightened Def Con from 0.000503126 to 0.000503126
Heightened Def Con from 0.000503126 to 0.000503126
Heightened Def Con from 0.000503126 +to 0.000503126
Heightened Def Con from 0.000503126 to 0.000503126
Heightened Def Con from 0.000503126 ++to 0.000503126
Heightened Def Con from 0.000503126 +++++++to 0.000503126
Heightened Def Con from 0.000503126 to 0.000503126
Heightened Def Con from 0.000503126 ++++to 0.000503126
Heightened Def Con from 0.000503126 +to 0.000503126
Heightened Def Con from 0.000503126 +to 0.000503126
Heightened Def Con from 0.000503126 +++to 0.000503126
Heightened Def Con from 0.000503126 to 0.000503126
Heightened Def Con from 0.000503126 ++to 0.000503126
Heightened Def Con from 0.000503126 to 0.000503126
Heightened Def Con from 0.000503126 to 0.000503126
Heightened Def Con from 0.000503126 to 0.000503126
Heightened Def Con from 0.000503126 to 0.000503126
Heightened Def Con from 0.000503126 +to 0.000503126
Heightened Def Con from 0.000503126 ++to 0.000503126
Heightened Def Con from 0.000503126 to 0.000503126
Heightened Def Con from 0.000503126 ++++to 0.000503126
Heightened Def Con from 0.000503126 to 0.000503126
Heightened Def Con from 0.000503126 +++++to 0.000503126
Heightened Def Con from 0.000503126 +to 0.000503126
Heightened Def Con from 0.000503126 ++to 0.000503126
Heightened Def Con from 0.000503126 to 0.000503126
Heightened Def Con from 0.000503126 ++to 0.000503126
Heightened Def Con from 0.000503126 to 0.000503126
Heightened Def Con from 0.000503126 to 0.000503126
Heightened Def Con from 0.000503126 +to 0.000503126
Heightened Def Con from 0.000503126 to 0.000503126
Heightened Def Con from 0.000503126 to 0.000503126
Heightened Def Con from 0.000503126 +to 0.000503126
Heightened Def Con from 0.000503126 +to 0.000503126
Heightened Def Con from 0.000503126 to 0.000503126
Heightened Def Con from 0.000503126 +to 0.000503126
Heightened Def Con from 0.000503126 to 0.000503126
Heightened Def Con from 0.000503126 +to 0.000503126
Heightened Def Con from 0.000503126 ++to 0.000503126
Heightened Def Con from 0.000503126 ++to 0.000503126
Heightened Def Con from 0.000503126 ++to 0.000503126
Heightened Def Con from 0.000503126 to 0.000503126
Heightened Def Con from 0.000503126 to 0.000503126
Heightened Def Con from 0.000503126 +to 0.000503126
Heightened Def Con from 0.000503126 to 0.000503126
Heightened Def Con from 0.000503126 to 0.000503126
Heightened Def Con from 0.000503126 to 0.000503126
Heightened Def Con from 0.000503126 to 0.000503126
Heightened Def Con from 0.000503126 ++++to 0.000503126
Heightened Def Con from 0.000503126 ++++++to 0.000503126
Heightened Def Con from 0.000503126 ++++++to 0.000503126
Heightened Def Con from 0.000503126 to 0.000503126
Heightened Def Con from 0.000503126 to 0.000503126
Heightened Def Con from 0.000503126 to 0.000503126
Heightened Def Con from 0.000503126 to 0.000503126
Heightened Def Con from 0.000503126 to 0.000503126
Heightened Def Con from 0.000503126 +to 0.000503126
Heightened Def Con from 0.000503126 ++to 0.000503126
Heightened Def Con from 0.000503126 +to 0.000503126
Heightened Def Con from 0.000503126 +to 0.000503126
Heightened Def Con from 0.000503126 ++to 0.000503126
Heightened Def Con from 0.000503126 +to 0.000503126
Heightened Def Con from 0.000503126 ++to 0.000503126
Heightened Def Con from 0.000503126 ++to 0.000503126
Heightened Def Con from 0.000503126 ++to 0.000503126
Heightened Def Con from 0.000503126 +++++to 0.000503126
Heightened Def Con from 0.000503126 +++to 0.000503126
Heightened Def Con from 0.000503126 ++to 0.000503126
Heightened Def Con from 0.000503126 ++to 0.000503126
Heightened Def Con from 0.000503126 ++++to 0.000503126
Heightened Def Con from 0.000503126 ++++to 0.000503126
Heightened Def Con from 0.000503126 ++to 0.000503126
Heightened Def Con from 0.000503126 +++to 0.000503126
Heightened Def Con from 0.000503126 ++++to 0.000503126
Heightened Def Con from 0.000503126 +++++to 0.000503126
Heightened Def Con from 0.000503126 +++to 0.000503126
Heightened Def Con from 0.000503126 +++to 0.000503126
Heightened Def Con from 0.000503126 +++to 0.000503126
Heightened Def Con from 0.000503126 ++++to 0.000503126
Heightened Def Con from 0.000503126 +++to 0.000503126
Heightened Def Con from 0.000503126 +++to 0.000503126
Heightened Def Con from 0.000503126 ++++++++to 0.000503126
Heightened Def Con from 0.000503126 ++++to 0.000503126
Heightened Def Con from 0.000503126 +++to 0.000503126
Heightened Def Con from 0.000503126 ++++++to 0.000503126
Heightened Def Con from 0.000503126 +++to 0.000503126
Heightened Def Con from 0.000503126 +++to 0.000503126
Heightened Def Con from 0.000503126 ++++to 0.000503126
Heightened Def Con from 0.000503126 +++++++++to 0.000503126
Heightened Def Con from 0.000503126 +++++to 0.000503126
Heightened Def Con from 0.000503126 ++++to 0.000503126
Heightened Def Con from 0.000503126 +++to 0.000503126
Heightened Def Con from 0.000503126 ++++++++++to 0.000503126
Heightened Def Con from 0.000503126 +++++++to 0.000503126
Heightened Def Con from 0.000503126 +++to 0.000503126
Heightened Def Con from 0.000503126 ++++++to 0.000503126
Heightened Def Con from 0.000503126 +++to 0.000503126
Heightened Def Con from 0.000503126 +++to 0.000503126
Heightened Def Con from 0.000503126 ++++to 0.000503126
Heightened Def Con from 0.000503126 ++++to 0.000503126
Heightened Def Con from 0.000503126 +++++++to 0.000503126
Heightened Def Con from 0.000503126 +++++to 0.000503126
Heightened Def Con from 0.000503126 ++++to 0.000503126
Heightened Def Con from 0.000503126 +++++to 0.000503126
Heightened Def Con from 0.000503126 +++++to 0.000503126
Heightened Def Con from 0.000503126 +++++to 0.000503126
Heightened Def Con from 0.000503126 +++++to 0.000503126
Heightened Def Con from 0.000503126 ++++to 0.000503126
Heightened Def Con from 0.000503126 +++++to 0.000503126
Heightened Def Con from 0.000503126 ++++++++to 0.000503126
Heightened Def Con from 0.000503126 +++++to 0.000503126
Heightened Def Con from 0.000503126 +++++to 0.000503126
Heightened Def Con from 0.000503126 ++++++to 0.000503126
Heightened Def Con from 0.000503126 ++++to 0.000503126
Heightened Def Con from 0.000503126 ++++to 0.000503126
Heightened Def Con from 0.000503126 ++++++to 0.000503126
Heightened Def Con from 0.000503126 ++++to 0.000503126
Heightened Def Con from 0.000503126 ++++++++to 0.000503126
Heightened Def Con from 0.000503126 +++++to 0.000503126
Heightened Def Con from 0.000503126 +++++to 0.000503126
Heightened Def Con from 0.000503126 +++++to 0.000503126
Heightened Def Con from 0.000503126 ++++to 0.000503126
Heightened Def Con from 0.000503126 +++++++to 0.000503126
Heightened Def Con from 0.000503126 ++++++to 0.000503126
Heightened Def Con from 0.000503126 ++++to 0.000503126
Heightened Def Con from 0.000503126 ++++++++to 0.000503126
Heightened Def Con from 0.000503126 ++++to 0.000503126
Heightened Def Con from 0.000503126 ++++++to 0.000503126
Heightened Def Con from 0.000503126 +++++to 0.000503126
Heightened Def Con from 0.000503126 ++++++to 0.000503126
Heightened Def Con from 0.000503126 +++++to 0.000503126
Heightened Def Con from 0.000503126 +++++to 0.000503126
Heightened Def Con from 0.000503126 +++++to 0.000503126
Heightened Def Con from 0.000503126 ++++++to 0.000503126
Heightened Def Con from 0.000503126 ++++to 0.000503126
Heightened Def Con from 0.000503126 ++++++to 0.000503126
Heightened Def Con from 0.000503126 ++++to 0.000503126
Heightened Def Con from 0.000503126 ++++to 0.000503126
Heightened Def Con from 0.000503126 +++++to 0.000503126
Heightened Def Con from 0.000503126 ++++to 0.000503126
Heightened Def Con from 0.000503126 +++++to 0.000503126
Heightened Def Con from 0.000503126 ++++++++to 0.000503126
Heightened Def Con from 0.000503126 ++++to 0.000503126
Heightened Def Con from 0.000503126 ++++++++to 0.000503126
Heightened Def Con from 0.000503126 +++++to 0.000503126
Heightened Def Con from 0.000503126 +++++to 0.000503126
Heightened Def Con from 0.000503126 ++++++to 0.000503126
Heightened Def Con from 0.000503126 ++++++to 0.000503126
Heightened Def Con from 0.000503126 +++++to 0.000503126
Heightened Def Con from 0.000503126 ++++++to 0.000503126
Heightened Def Con from 0.000503126 +++++to 0.000503126
Heightened Def Con from 0.000503126 ++++++to 0.000503126
Heightened Def Con from 0.000503126 ++++++to 0.000503126
Heightened Def Con from 0.000503126 ++++++++to 0.000503126
Heightened Def Con from 0.000503126 ++++++++to 0.000503126
Heightened Def Con from 0.000503126 +++++++++to 0.000503126
Heightened Def Con from 0.000503126 +++++to 0.000503126
Heightened Def Con from 0.000503126 +++++to 0.000503126
Heightened Def Con from 0.000503126 ++++++to 0.000503126
Heightened Def Con from 0.000503126 ++++++to 0.000503126
Heightened Def Con from 0.000503126 +++++++to 0.000503126
Heightened Def Con from 0.000503126 +++++++to 0.000503126
Heightened Def Con from 0.000503126 +++++to 0.000503126
Heightened Def Con from 0.000503126 +++++to 0.000503126
Heightened Def Con from 0.000503126 +++++to 0.000503126
Heightened Def Con from 0.000503126 ++++++to 0.000503126
Heightened Def Con from 0.000503126 +++++to 0.000503126
Heightened Def Con from 0.000503126 +++++to 0.000503126
Heightened Def Con from 0.000503126 ++++++to 0.000503126
Heightened Def Con from 0.000503126 ++++++to 0.000503126
Heightened Def Con from 0.000503126 +++++to 0.000503126
Heightened Def Con from 0.000503126 +++++to 0.000503126
Heightened Def Con from 0.000503126 +++++to 0.000503126
Heightened Def Con from 0.000503126 +++++to 0.000503126
Heightened Def Con from 0.000503126 +++++to 0.000503126
Heightened Def Con from 0.000503126 +++++to 0.000503126
Heightened Def Con from 0.000503126 ++++++to 0.000503126
Heightened Def Con from 0.000503126 +++++to 0.000503126
Heightened Def Con from 0.000503126 +++++to 0.000503126
Heightened Def Con from 0.000503126 ++++++++to 0.000503126
Heightened Def Con from 0.000503126 +++++to 0.000503126
Heightened Def Con from 0.000503126 +++++to 0.000503126
Heightened Def Con from 0.000503126 ++++++++to 0.000503126
Heightened Def Con from 0.000503126 +++++to 0.000503126
Heightened Def Con from 0.000503126 +++++to 0.000503126
Heightened Def Con from 0.000503126 ++to 0.000503126
Heightened Def Con from 0.000503126 ++++++to 0.000503126
Heightened Def Con from 0.000503126 ++++++to 0.000503126
Heightened Def Con from 0.000503126 +++++to 0.000503126
Heightened Def Con from 0.000503126 ++++++++++to 0.000503126
Heightened Def Con from 0.000503126 ++++++to 0.000503126
Heightened Def Con from 0.000503126 +++++to 0.000503126
Heightened Def Con from 0.000503126 +++++to 0.000503126
Heightened Def Con from 0.000503126 ++++++to 0.000503126
Heightened Def Con from 0.000503126 +++++to 0.000503126
Heightened Def Con from 0.000503126 ++++++to 0.000503126
Heightened Def Con from 0.000503126 ++++++to 0.000503126
Heightened Def Con from 0.000503126 ++++++to 0.000503126
Heightened Def Con from 0.000503126 ++++++to 0.000503126
Heightened Def Con from 0.000503126 +++++to 0.000503126
Heightened Def Con from 0.000503126 +++++to 0.000503126
Heightened Def Con from 0.000503126 ++++++to 0.000503126
Heightened Def Con from 0.000503126 ++++++to 0.000503126
Heightened Def Con from 0.000503126 +++++to 0.000503126
Heightened Def Con from 0.000503126 +++++to 0.000503126
Heightened Def Con from 0.000503126 +++++to 0.000503126
Heightened Def Con from 0.000503126 ++++++to 0.000503126
Heightened Def Con from 0.000503126 +++++++to 0.000503126
Heightened Def Con from 0.000503126 +++++to 0.000503126
Heightened Def Con from 0.000503126 ++++++to 0.000503126
Heightened Def Con from 0.000503126 +++++to 0.000503126
Heightened Def Con from 0.000503126 ++++++to 0.000503126
Heightened Def Con from 0.000503126 +++++++to 0.000503126
Heightened Def Con from 0.000503126 +++++to 0.000503126
Heightened Def Con from 0.000503126 ++++++++to 0.000503126
Heightened Def Con from 0.000503126 +++++to 0.000503126
Heightened Def Con from 0.000503126 +++++to 0.000503126
Heightened Def Con from 0.000503126 +++++to 0.000503126
Heightened Def Con from 0.000503126 +++++to 0.000503126
Heightened Def Con from 0.000503126 +++to 0.000503126
Heightened Def Con from 0.000503126 ++++++to 0.000503126
Heightened Def Con from 0.000503126 +++++to 0.000503126
Heightened Def Con from 0.000503126 +++++to 0.000503126
Heightened Def Con from 0.000503126 +++++to 0.000503126
Heightened Def Con from 0.000503126 +++++to 0.000503126
Heightened Def Con from 0.000503126 ++++++to 0.000503126
Heightened Def Con from 0.000503126 ++++++++to 0.000503126
Heightened Def Con from 0.000503126 +++++++++to 0.000503126
Heightened Def Con from 0.000503126 +++++to 0.000503126
Heightened Def Con from 0.000503126 ++++++to 0.000503126
Heightened Def Con from 0.000503126 +++++++to 0.000503126
Heightened Def Con from 0.000503126 +++++to 0.000503126
Heightened Def Con from 0.000503126 +++++to 0.000503126
Heightened Def Con from 0.000503126 +++++to 0.000503126
Heightened Def Con from 0.000503126 ++++++to 0.000503126
Heightened Def Con from 0.000503126 +++++++to 0.000503126
Heightened Def Con from 0.000503126 +++++to 0.000503126
Heightened Def Con from 0.000503126 ++++++++to 0.000503126
Heightened Def Con from 0.000503126 +++++to 0.000503126
Heightened Def Con from 0.000503126 +++++to 0.000503126
Heightened Def Con from 0.000503126 ++++++to 0.000503126
Heightened Def Con from 0.000503126 ++++++to 0.000503126
Heightened Def Con from 0.000503126 ++++++to 0.000503126
Heightened Def Con from 0.000503126 +++++++to 0.000503126
Heightened Def Con from 0.000503126 ++++++++to 0.000503126
Heightened Def Con from 0.000503126 ++++++to 0.000503126
Heightened Def Con from 0.000503126 ++++++to 0.000503126
Heightened Def Con from 0.000503126 ++++++to 0.000503126
Heightened Def Con from 0.000503126 ++++++to 0.000503126
Heightened Def Con from 0.000503126 ++++++++++to 0.000503126
Heightened Def Con from 0.000503126 ++++++++to 0.000503126
Heightened Def Con from 0.000503126 ++++++to 0.000503126
Heightened Def Con from 0.000503126 +++++++to 0.000503126
Heightened Def Con from 0.000503126 ++++++++to 0.000503126
Heightened Def Con from 0.000503126 +++++++to 0.000503126
Heightened Def Con from 0.000503126 ++++++to 0.000503126
Heightened Def Con from 0.000503126 ++++++to 0.000503126
Heightened Def Con from 0.000503126 ++++++++++to 0.000503126
Heightened Def Con from 0.000503126 ++++++to 0.000503126
Heightened Def Con from 0.000503126 ++++++++++to 0.000503126
Heightened Def Con from 0.000503126 ++++++to 0.000503126
Heightened Def Con from 0.000503126 ++++++++to 0.000503126
Heightened Def Con from 0.000503126 +++++++++to 0.000503126
Heightened Def Con from 0.000503126 +++++++to 0.000503126
Heightened Def Con from 0.000503126 ++++++to 0.000503126
Heightened Def Con from 0.000503126 ++++++++to 0.000503126
Heightened Def Con from 0.000503126 ++++++to 0.000503126
Heightened Def Con from 0.000503126 ++++++to 0.000503126
Heightened Def Con from 0.000503126 ++++++to 0.000503126
Heightened Def Con from 0.000503126 +++++++to 0.000503126
Heightened Def Con from 0.000503126 +++++++++to 0.000503126
Heightened Def Con from 0.000503126 +++++++to 0.000503126
Heightened Def Con from 0.000503126 ++++++++to 0.000503126
Heightened Def Con from 0.000503126 +++++++to 0.000503126
Heightened Def Con from 0.000503126 ++++++to 0.000503126
Heightened Def Con from 0.000503126 ++++++++to 0.000503126
Heightened Def Con from 0.000503126 ++++++to 0.000503126
Heightened Def Con from 0.000503126 +++++++to 0.000503126
Heightened Def Con from 0.000503126 ++++++++to 0.000503126
Heightened Def Con from 0.000503126 +++++++++to 0.000503126
Heightened Def Con from 0.000503126 +++++++to 0.000503126
Heightened Def Con from 0.000503126 ++++++to 0.000503126
Heightened Def Con from 0.000503126 ++++++++to 0.000503126
Heightened Def Con from 0.000503126 ++++++to 0.000503126
Heightened Def Con from 0.000503126 ++++++to 0.000503126
Heightened Def Con from 0.000503126 ++++++to 0.000503126
Heightened Def Con from 0.000503126 ++++++to 0.000503126
Heightened Def Con from 0.000503126 +++++++to 0.000503126
Heightened Def Con from 0.000503126 ++++++++to 0.000503126
Heightened Def Con from 0.000503126 ++++++to 0.000503126
Heightened Def Con from 0.000503126 +++++++++to 0.000503126
Heightened Def Con from 0.000503126 ++++++++to 0.000503126
Heightened Def Con from 0.000503126 ++++++to 0.000503126
Heightened Def Con from 0.000503126 ++++++to 0.000503126
Heightened Def Con from 0.000503126 ++++++++to 0.000503126
Heightened Def Con from 0.000503126 ++++++to 0.000503126
Heightened Def Con from 0.000503126 +++++++++to 0.000503126
Heightened Def Con from 0.000503126 ++++++++to 0.000503126
Heightened Def Con from 0.000503126 +++++++++to 0.000503126
Heightened Def Con from 0.000503126 +++++++to 0.000503126
Heightened Def Con from 0.000503126 +++++++++to 0.000503126
Heightened Def Con from 0.000503126 ++++++++to 0.000503126
Heightened Def Con from 0.000503126 +++++++to 0.000503126
Heightened Def Con from 0.000503126 ++++++to 0.000503126
Heightened Def Con from 0.000503126 +++++++++to 0.000503126
Heightened Def Con from 0.000503126 ++++++++to 0.000503126
Heightened Def Con from 0.000503126 +++++++to 0.000503126
Heightened Def Con from 0.000503126 ++++++to 0.000503126
Heightened Def Con from 0.000503126 +++++++to 0.000503126
Heightened Def Con from 0.000503126 ++++++to 0.000503126
Heightened Def Con from 0.000503126 ++++++++++to 0.000503126
Heightened Def Con from 0.000503126 +++++++to 0.000503126
Heightened Def Con from 0.000503126 ++++++to 0.000503126
Heightened Def Con from 0.000503126 ++++++to 0.000503126
Heightened Def Con from 0.000503126 ++++++to 0.000503126
Heightened Def Con from 0.000503126 +++++++to 0.000503126
Heightened Def Con from 0.000503126 ++++++to 0.000503126
Heightened Def Con from 0.000503126 ++++++to 0.000503126
Heightened Def Con from 0.000503126 ++++++++++to 0.000503126
Heightened Def Con from 0.000503126 +++++++to 0.000503126
Heightened Def Con from 0.000503126 ++++++to 0.000503126
Heightened Def Con from 0.000503126 ++++++to 0.000503126
Heightened Def Con from 0.000503126 ++++++++++to 0.000503126
Heightened Def Con from 0.000503126 +++++++to 0.000503126
Heightened Def Con from 0.000503126 ++++++to 0.000503126
Heightened Def Con from 0.000503126 +++++++++to 0.000503126
Heightened Def Con from 0.000503126 ++++++to 0.000503126
Heightened Def Con from 0.000503126 ++++++to 0.000503126
Heightened Def Con from 0.000503126 +++++++to 0.000503126
Heightened Def Con from 0.000503126 ++++++to 0.000503126
Heightened Def Con from 0.000503126 +++++++to 0.000503126
Heightened Def Con from 0.000503126 +++++++to 0.000503126
Heightened Def Con from 0.000503126 +++++++to 0.000503126
Heightened Def Con from 0.000503126 ++++++to 0.000503126
Heightened Def Con from 0.000503126 +++++++to 0.000503126
Heightened Def Con from 0.000503126 ++++++to 0.000503126
Heightened Def Con from 0.000503126 ++++++++to 0.000503126
Heightened Def Con from 0.000503126 ++++++++++to 0.000503126
Heightened Def Con from 0.000503126 ++++++++++to 0.000503126
Heightened Def Con from 0.000503126 +++++++to 0.000503126
Heightened Def Con from 0.000503126 +++++++++to 0.000503126
Heightened Def Con from 0.000503126 ++++++to 0.000503126
Heightened Def Con from 0.000503126 ++++++to 0.000503126
Heightened Def Con from 0.000503126 ++++++to 0.000503126
Heightened Def Con from 0.000503126 ++++++++++to 0.000503126
Heightened Def Con from 0.000503126 ++++++++to 0.000503126
Heightened Def Con from 0.000503126 ++++++++++to 0.000503126
Heightened Def Con from 0.000503126 ++++++to 0.000503126
Heightened Def Con from 0.000503126 ++++++to 0.000503126
Heightened Def Con from 0.000503126 +++++++++to 0.000503126
Heightened Def Con from 0.000503126 ++++++to 0.000503126
Heightened Def Con from 0.000503126 ++++++to 0.000503126
Heightened Def Con from 0.000503126 +++++++to 0.000503126
Heightened Def Con from 0.000503126 +++++++++to 0.000503126
Heightened Def Con from 0.000503126 +++++++to 0.000503126
Heightened Def Con from 0.000503126 ++++++to 0.000503126
Heightened Def Con from 0.000503126 ++++++++++to 0.000503126
Heightened Def Con from 0.000503126 +++++++to 0.000503126
Heightened Def Con from 0.000503126 ++++++++++to 0.000503126
Heightened Def Con from 0.000503126 ++++++to 0.000503126
Heightened Def Con from 0.000503126 +++++++to 0.000503126
Heightened Def Con from 0.000503126 ++++++to 0.000503126
Heightened Def Con from 0.000503126 +++++++to 0.000503126
Heightened Def Con from 0.000503126 +++++++to 0.000503126
Heightened Def Con from 0.000503126 ++++++++to 0.000503126
Heightened Def Con from 0.000503126 ++++++to 0.000503126
Heightened Def Con from 0.000503126 +++++++to 0.000503126
Heightened Def Con from 0.000503126 +++++++++to 0.000503126
Heightened Def Con from 0.000503126 ++++++to 0.000503126
Heightened Def Con from 0.000503126 ++++++to 0.000503126
Heightened Def Con from 0.000503126 ++++++++++to 0.000503126
Heightened Def Con from 0.000503126 +++++++to 0.000503126
Heightened Def Con from 0.000503126 +++++++++to 0.000503126
Heightened Def Con from 0.000503126 +++++++to 0.000503126
Heightened Def Con from 0.000503126 +++++++to 0.000503126
Heightened Def Con from 0.000503126 +++++++++to 0.000503126
Heightened Def Con from 0.000503126 +++++++to 0.000503126
Heightened Def Con from 0.000503126 ++++++++to 0.000503126
Heightened Def Con from 0.000503126 +++++++to 0.000503126
Heightened Def Con from 0.000503126 ++++++++++to 0.000503126
Heightened Def Con from 0.000503126 +++++++to 0.000503126
Heightened Def Con from 0.000503126 ++++++to 0.000503126
Heightened Def Con from 0.000503126 ++++++to 0.000503126
Heightened Def Con from 0.000503126 ++++++++++to 0.000503126
Heightened Def Con from 0.000503126 ++++++++to 0.000503126
Heightened Def Con from 0.000503126 +++++++++to 0.000503126
Heightened Def Con from 0.000503126 ++++++to 0.000503126
Heightened Def Con from 0.000503126 ++++++to 0.000503126
Heightened Def Con from 0.000503126 +++++++to 0.000503126
Heightened Def Con from 0.000503126 ++++++to 0.000503126
Heightened Def Con from 0.000503126 ++++++to 0.000503126
Heightened Def Con from 0.000503126 ++++++to 0.000503126
Heightened Def Con from 0.000503126 ++++++to 0.000503126
Heightened Def Con from 0.000503126 ++++++to 0.000503126
Heightened Def Con from 0.000503126 +++++++to 0.000503126
Heightened Def Con from 0.000503126 +++++++to 0.000503126
Heightened Def Con from 0.000503126 +++++++to 0.000503126
Heightened Def Con from 0.000503126 +++++++++to 0.000503126
Heightened Def Con from 0.000503126 ++++++to 0.000503126
Heightened Def Con from 0.000503126 ++++++to 0.000503126
Heightened Def Con from 0.000503126 +++++++to 0.000503126
Heightened Def Con from 0.000503126 ++++++++to 0.000503126
Heightened Def Con from 0.000503126 ++++++++to 0.000503126
Heightened Def Con from 0.000503126 ++++++++++to 0.000503126
Heightened Def Con from 0.000503126 ++++++to 0.000503126
Heightened Def Con from 0.000503126 ++++++++to 0.000503126
Heightened Def Con from 0.000503126 +++++++to 0.000503126
Heightened Def Con from 0.000503126 +++++++++to 0.000503126
Heightened Def Con from 0.000503126 ++++++++to 0.000503126
Heightened Def Con from 0.000503126 ++++++to 0.000503126
Heightened Def Con from 0.000503126 ++++++++to 0.000503126
Heightened Def Con from 0.000503126 ++++++++++to 0.000503126
Heightened Def Con from 0.000503126 ++++++to 0.000503126
Heightened Def Con from 0.000503126 ++++++++++to 0.000503126
Heightened Def Con from 0.000503126 +++++++to 0.000503126
Heightened Def Con from 0.000503126 ++++++to 0.000503126
Heightened Def Con from 0.000503126 ++++++to 0.000503126
Heightened Def Con from 0.000503126 ++++++to 0.000503126
Heightened Def Con from 0.000503126 ++++++to 0.000503126
Heightened Def Con from 0.000503126 +++++++++to 0.000503126
Heightened Def Con from 0.000503126 +++++++to 0.000503126
Heightened Def Con from 0.000503126 ++to 0.000503126
Heightened Def Con from 0.000503126 +++++++to 0.000503126
Heightened Def Con from 0.000503126 ++++++to 0.000503126
Heightened Def Con from 0.000503126 +++++++++to 0.000503126
Heightened Def Con from 0.000503126 ++++++++to 0.000503126
Heightened Def Con from 0.000503126 ++++++to 0.000503126
Heightened Def Con from 0.000503126 ++++++to 0.000503126
Heightened Def Con from 0.000503126 ++++++to 0.000503126
Heightened Def Con from 0.000503126 ++++++to 0.000503126
Heightened Def Con from 0.000503126 +++++++++to 0.000503126
Heightened Def Con from 0.000503126 ++++++++to 0.000503126
Heightened Def Con from 0.000503126 ++++++++to 0.000503126
Heightened Def Con from 0.000503126 ++++++to 0.000503126
Heightened Def Con from 0.000503126 +++++++++++to 0.000503126
Heightened Def Con from 0.000503126 ++++++++to 0.000503126
Heightened Def Con from 0.000503126 ++++++++++to 0.000503126
Heightened Def Con from 0.000503126 ++++++to 0.000503126
Heightened Def Con from 0.000503126 ++++++to 0.000503126
Heightened Def Con from 0.000503126 +++++++++++to 0.000503126
Heightened Def Con from 0.000503126 ++++++to 0.000503126
Heightened Def Con from 0.000503126 ++++++to 0.000503126
Heightened Def Con from 0.000503126 +++++++++to 0.000503126
Heightened Def Con from 0.000503126 ++++++to 0.000503126
Heightened Def Con from 0.000503126 ++++++to 0.000503126
Heightened Def Con from 0.000503126 ++++++to 0.000503126
Heightened Def Con from 0.000503126 ++++++to 0.000503126
Heightened Def Con from 0.000503126 +++++++to 0.000503126
Heightened Def Con from 0.000503126 +++++++++to 0.000503126
Heightened Def Con from 0.000503126 +++++++to 0.000503126
Heightened Def Con from 0.000503126 ++++++++to 0.000503126
Heightened Def Con from 0.000503126 +++++++to 0.000503126
Heightened Def Con from 0.000503126 ++++++++++to 0.000503126
Heightened Def Con from 0.000503126 +++++++to 0.000503126
Heightened Def Con from 0.000503126 +++++++to 0.000503126
Heightened Def Con from 0.000503126 +++++++to 0.000503126
Heightened Def Con from 0.000503126 ++++++++to 0.000503126
Heightened Def Con from 0.000503126 +++++++++to 0.000503126
Heightened Def Con from 0.000503126 ++++++++to 0.000503126
Heightened Def Con from 0.000503126 +++++++++to 0.000503126
Heightened Def Con from 0.000503126 ++++++++to 0.000503126
Heightened Def Con from 0.000503126 +++++++++to 0.000503126
Heightened Def Con from 0.000503126 ++++++++++to 0.000503126
Heightened Def Con from 0.000503126 +++++++to 0.000503126
Heightened Def Con from 0.000503126 ++++++++to 0.000503126
Heightened Def Con from 0.000503126 +++++++++++to 0.000503126
Heightened Def Con from 0.000503126 +++++++to 0.000503126
Heightened Def Con from 0.000503126 +++++++to 0.000503126
Heightened Def Con from 0.000503126 +++++++to 0.000503126
Heightened Def Con from 0.000503126 +++++++to 0.000503126
Heightened Def Con from 0.000503126 ++++++++++to 0.000503126
Heightened Def Con from 0.000503126 +++++++to 0.000503126
Heightened Def Con from 0.000503126 +++++++++to 0.000503126
Heightened Def Con from 0.000503126 ++++++++to 0.000503126
Heightened Def Con from 0.000503126 +++++++++to 0.000503126
Heightened Def Con from 0.000503126 +++++++to 0.000503126
Heightened Def Con from 0.000503126 +++++++to 0.000503126
Heightened Def Con from 0.000503126 +++++++to 0.000503126
Heightened Def Con from 0.000503126 ++++++++++to 0.000503126
Heightened Def Con from 0.000503126 +++++++to 0.000503126
Heightened Def Con from 0.000503126 ++++++++++to 0.000503126
Heightened Def Con from 0.000503126 ++++++++++to 0.000503126
Heightened Def Con from 0.000503126 ++++++++to 0.000503126
Heightened Def Con from 0.000503126 +++++++to 0.000503126
Heightened Def Con from 0.000503126 +++++++to 0.000503126
Heightened Def Con from 0.000503126 ++++++++to 0.000503126
Heightened Def Con from 0.000503126 ++++++++++to 0.000503126
Heightened Def Con from 0.000503126 +++++++to 0.000503126
Heightened Def Con from 0.000503126 +++++++++to 0.000503126
Heightened Def Con from 0.000503126 ++++++++to 0.000503126
Heightened Def Con from 0.000503126 +++++++to 0.000503126
Heightened Def Con from 0.000503126 +++++++++to 0.000503126
Heightened Def Con from 0.000503126 +++++++++to 0.000503126
Heightened Def Con from 0.000503126 +++++++++to 0.000503126
Heightened Def Con from 0.000503126 +++++++to 0.000503126
Heightened Def Con from 0.000503126 +++++++++to 0.000503126
Heightened Def Con from 0.000503126 +++++++to 0.000503126
Heightened Def Con from 0.000503126 +++++++to 0.000503126
Heightened Def Con from 0.000503126 +++++++to 0.000503126
Heightened Def Con from 0.000503126 +++++++++to 0.000503126
Heightened Def Con from 0.000503126 +++++++to 0.000503126
Heightened Def Con from 0.000503126 ++++++++++to 0.000503126
Heightened Def Con from 0.000503126 +++++++to 0.000503126
Heightened Def Con from 0.000503126 +++++++++to 0.000503126
Heightened Def Con from 0.000503126 +++++++to 0.000503126
Heightened Def Con from 0.000503126 +++++++to 0.000503126
Heightened Def Con from 0.000503126 ++++++++to 0.000503126
Heightened Def Con from 0.000503126 +++++++++to 0.000503126
Heightened Def Con from 0.000503126 +++++++to 0.000503126
Heightened Def Con from 0.000503126 ++++++++to 0.000503126
Heightened Def Con from 0.000503126 ++++++++to 0.000503126
Heightened Def Con from 0.000503126 +++++++++++to 0.000503126
Heightened Def Con from 0.000503126 +++++++++++to 0.000503126
Heightened Def Con from 0.000503126 +++++++to 0.000503126
Heightened Def Con from 0.000503126 ++++++++++to 0.000503126
Heightened Def Con from 0.000503126 ++++++++++to 0.000503126
Heightened Def Con from 0.000503126 +++++++to 0.000503126
Heightened Def Con from 0.000503126 +++++++to 0.000503126
Heightened Def Con from 0.000503126 ++++++++++to 0.000503126
Heightened Def Con from 0.000503126 +++++++to 0.000503126
Heightened Def Con from 0.000503126 ++++++++to 0.000503126
Heightened Def Con from 0.000503126 +++++++to 0.000503126
Heightened Def Con from 0.000503126 +++++++to 0.000503126
Heightened Def Con from 0.000503126 +++++++to 0.000503126
Heightened Def Con from 0.000503126 +++++++++to 0.000503126
Heightened Def Con from 0.000503126 +++++++to 0.000503126
Heightened Def Con from 0.000503126 +++++++++++to 0.000503126
Heightened Def Con from 0.000503126 +++++++to 0.000503126
Heightened Def Con from 0.000503126 +++++++to 0.000503126
Heightened Def Con from 0.000503126 +++++++to 0.000503126
Heightened Def Con from 0.000503126 +++++++to 0.000503126
Heightened Def Con from 0.000503126 ++++to 0.000503126
Heightened Def Con from 0.000503126 +++++++to 0.000503126
Heightened Def Con from 0.000503126 +++++++to 0.000503126
Heightened Def Con from 0.000503126 +++++++to 0.000503126
Heightened Def Con from 0.000503126 +++++++to 0.000503126
Heightened Def Con from 0.000503126 +++++++++to 0.000503126
Heightened Def Con from 0.000503126 +++++++to 0.000503126
Heightened Def Con from 0.000503126 +++++++to 0.000503126
Heightened Def Con from 0.000503126 ++++++++to 0.000503126
Heightened Def Con from 0.000503126 +++++++to 0.000503126
Heightened Def Con from 0.000503126 +++++++to 0.000503126
Heightened Def Con from 0.000503126 +++++++to 0.000503126
Heightened Def Con from 0.000503126 ++++++++++to 0.000503126
Heightened Def Con from 0.000503126 +++++++++to 0.000503126
Heightened Def Con from 0.000503126 +++++++++++to 0.000503126
Heightened Def Con from 0.000503126 ++++++++to 0.000503126
Heightened Def Con from 0.000503126 +++++++++to 0.000503126
Heightened Def Con from 0.000503126 +++++++to 0.000503126
Heightened Def Con from 0.000503126 +++++++to 0.000503126
Heightened Def Con from 0.000503126 +++++++++to 0.000503126
Heightened Def Con from 0.000503126 ++++++++to 0.000503126
Heightened Def Con from 0.000503126 +++++++to 0.000503126
Heightened Def Con from 0.000503126 +++++++to 0.000503126
Heightened Def Con from 0.000503126 ++++++++++to 0.000503126
Heightened Def Con from 0.000503126 ++++++++to 0.000503126
Heightened Def Con from 0.000503126 +++++++to 0.000503126
Heightened Def Con from 0.000503126 +++++++++to 0.000503126
Heightened Def Con from 0.000503126 +++++++to 0.000503126
Heightened Def Con from 0.000503126 +++++++to 0.000503126
Heightened Def Con from 0.000503126 ++++++++to 0.000503126
Heightened Def Con from 0.000503126 ++++++++to 0.000503126
Heightened Def Con from 0.000503126 +++++++to 0.000503126
Heightened Def Con from 0.000503126 +++++++++to 0.000503126
Heightened Def Con from 0.000503126 ++++++++to 0.000503126
Heightened Def Con from 0.000503126 +++++++to 0.000503126
Heightened Def Con from 0.000503126 +++++++to 0.000503126
Heightened Def Con from 0.000503126 +++++++to 0.000503126
Heightened Def Con from 0.000503126 +++++++++to 0.000503126
Heightened Def Con from 0.000503126 +++++++to 0.000503126
Heightened Def Con from 0.000503126 ++++++++to 0.000503126
Heightened Def Con from 0.000503126 ++++++++to 0.000503126
Heightened Def Con from 0.000503126 +++++++to 0.000503126
Heightened Def Con from 0.000503126 to 0.000503126
Heightened Def Con from 0.000503126 +++++++++to 0.000503126
Heightened Def Con from 0.000503126 ++++++++to 0.000503126
Heightened Def Con from 0.000503126 +++++++to 0.000503126
Heightened Def Con from 0.000503126 +++++++++++to 0.000503126
Heightened Def Con from 0.000503126 ++++++++to 0.000503126
Heightened Def Con from 0.000503126 ++++++++to 0.000503126
Heightened Def Con from 0.000503126 +++++++to 0.000503126
Heightened Def Con from 0.000503126 ++++++++to 0.000503126
Heightened Def Con from 0.000503126 ++++++++to 0.000503126
[...]
Heightened Def Con from 0.000503126 +++++++++++to 0.000503126
Heightened Def Con from 0.000503126 ++++++++++to 0.000503126
Heightened Def Con from 0.000503126 ++++++++++to 0.000503126
Heightened Def Con from 0.000503126 +++++++++++to 0.000503126
Heightened Def Con from 0.000503126 +++++++++++to 0.000503126
Heightened Def Con from 0.000503126 +++++++++++to 0.000503126
Heightened Def Con from 0.000503126 +++++++++++to 0.000503126
Heightened Def Con from 0.000503126 +++++++++++to 0.000503126
Heightened Def Con from 0.000503126 +++++++++++to 0.000503126
Heightened Def Con from 0.000503126 +++++++++++to 0.000503126
Heightened Def Con from 0.000503126 +++++++++++to 0.000503126
Heightened Def Con from 0.000503126 ++++++++++to 0.000503126
Heightened Def Con from 0.000503126 +++++++++++to 0.000503126
Heightened Def Con from 0.000503126 ++++++++++to 0.000503126
Heightened Def Con from 0.000503126 +++++++++++to 0.000503126
Heightened Def Con from 0.000503126 ++++++++++to 0.000503126
Heightened Def Con from 0.000503126 +++++++++++to 0.000503126
Heightened Def Con from 0.000503126 ++++++++++to 0.000503126
Heightened Def Con from 0.000503126 +++++++++++to 0.000503126
Heightened Def Con from 0.000503126 ++++++++++to 0.000503126
Heightened Def Con from 0.000503126 +++++++++++to 0.000503126
Heightened Def Con from 0.000503126 ++++++++to 0.000503126
Heightened Def Con from 0.000503126 +++++++++++to 0.000503126
Heightened Def Con from 0.000503126 ++++++++++to 0.000503126
Heightened Def Con from 0.000503126 +++++++++++to 0.000503126
Heightened Def Con from 0.000503126 ++++++++++to 0.000503126
Heightened Def Con from 0.000503126 +++++++++++to 0.000503126
Heightened Def Con from 0.000503126 +++++++++++to 0.000503126
Heightened Def Con from 0.000503126 +++++++++++to 0.000503126
Heightened Def Con from 0.000503126 ++++++++to 0.000503126
Heightened Def Con from 0.000503126 +++++++++++to 0.000503126
Heightened Def Con from 0.000503126 ++++++++++to 0.000503126
Heightened Def Con from 0.000503126 +++++++++++to 0.000503126
Heightened Def Con from 0.000503126 +++++++++++to 0.000503126
Heightened Def Con from 0.000503126 +++++++++++to 0.000503126
Heightened Def Con from 0.000503126 ++++++++++to 0.000503126
Heightened Def Con from 0.000503126 ++++++++++to 0.000503126
Heightened Def Con from 0.000503126 ++++++++++to 0.000503126
Heightened Def Con from 0.000503126 ++++++++++to 0.000503126
Heightened Def Con from 0.000503126 +++++++++++to 0.000503126
Heightened Def Con from 0.000503126 ++++++++++to 0.000503126
Heightened Def Con from 0.000503126 +++++++++++to 0.000503126
Heightened Def Con from 0.000503126 +++++++++++to 0.000503126
Heightened Def Con from 0.000503126 ++++++++++to 0.000503126
Heightened Def Con from 0.000503126 +++++++++++to 0.000503126
Heightened Def Con from 0.000503126 +++++++++++to 0.000503126
Heightened Def Con from 0.000503126 +++++++++++to 0.000503126
Heightened Def Con from 0.000503126 +++++++++++to 0.000503126
Heightened Def Con from 0.000503126 ++++++++++to 0.000503126
Heightened Def Con from 0.000503126 ++++++++++to 0.000503126
Heightened Def Con from 0.000503126 +++++++++++to 0.000503126
Heightened Def Con from 0.000503126 +++++++++++to 0.000503126
Heightened Def Con from 0.000503126 +++++++++++to 0.000503126
Heightened Def Con from 0.000503126 +++++++++++to 0.000503126
Heightened Def Con from 0.000503126 +++++++++++to 0.000503126
Heightened Def Con from 0.000503126 ++++++++++to 0.000503126
Heightened Def Con from 0.000503126 +++++++++++to 0.000503126
Heightened Def Con from 0.000503126 ++++++++++to 0.000503126
Heightened Def Con from 0.000503126 +++++++++++to 0.000503126
Heightened Def Con from 0.000503126 ++++++++++to 0.000503126
Heightened Def Con from 0.000503126 +++++++++++to 0.000503126
Heightened Def Con from 0.000503126 +++++++++++to 0.000503126
Heightened Def Con from 0.000503126 +++++++++++to 0.000503126
Heightened Def Con from 0.000503126 ++++++++++to 0.000503126
Heightened Def Con from 0.000503126 +++++++++++to 0.000503126
Heightened Def Con from 0.000503126 ++++++++++to 0.000503126
Heightened Def Con from 0.000503126 ++++++++++to 0.000503126
Heightened Def Con from 0.000503126 ++++++++++to 0.000503126
Heightened Def Con from 0.000503126 +++++++++++to 0.000503126
Heightened Def Con from 0.000503126 +++++++++++to 0.000503126
Heightened Def Con from 0.000503126 +++++++++++to 0.000503126
Heightened Def Con from 0.000503126 +++++++++++to 0.000503126
Heightened Def Con from 0.000503126 +++++++++++to 0.000503126
Heightened Def Con from 0.000503126 ++++++++++to 0.000503126
Heightened Def Con from 0.000503126 +++++++++++to 0.000503126
Heightened Def Con from 0.000503126 ++++++++++to 0.000503126
Heightened Def Con from 0.000503126 ++++++++++to 0.000503126
Heightened Def Con from 0.000503126 +++++++++++to 0.000503126
Heightened Def Con from 0.000503126 ++++++++++to 0.000503126
Heightened Def Con from 0.000503126 ++++++++++to 0.000503126
Heightened Def Con from 0.000503126 +++++++++++to 0.000503126
Heightened Def Con from 0.000503126 +++++++++++to 0.000503126
Heightened Def Con from 0.000503126 ++++++++++to 0.000503126
Heightened Def Con from 0.000503126 ++++++++++to 0.000503126
Heightened Def Con from 0.000503126 +++++++++++to 0.000503126
Heightened Def Con from 0.000503126 ++++++++++to 0.000503126
Heightened Def Con from 0.000503126 ++++++++++to 0.000503126
Heightened Def Con from 0.000503126 ++++++++++to 0.000503126
Heightened Def Con from 0.000503126 +++++++++++to 0.000503126
Heightened Def Con from 0.000503126 ++++++++++to 0.000503126
Heightened Def Con from 0.000503126 ++++++++++to 0.000503126
Heightened Def Con from 0.000503126 ++++++++++to 0.000503126
Heightened Def Con from 0.000503126 ++++++++++to 0.000503126
Heightened Def Con from 0.000503126 +++++++++++to 0.000503126
Heightened Def Con from 0.000503126 ++++++++++to 0.000503126
Heightened Def Con from 0.000503126 +++++++++++to 0.000503126
Heightened Def Con from 0.000503126 ++++++++++to 0.000503126
Heightened Def Con from 0.000503126 +++++++++++to 0.000503126
Heightened Def Con from 0.000503126 ++++++++++to 0.000503126
Heightened Def Con from 0.000503126 +++++++++++to 0.000503126
Heightened Def Con from 0.000503126 ++++++++++to 0.000503126
Heightened Def Con from 0.000503126 +++++++++++to 0.000503126
Heightened Def Con from 0.000503126 ++++++++++to 0.000503126
Heightened Def Con from 0.000503126 +++++++++++to 0.000503126
Heightened Def Con from 0.000503126 +++++++++++to 0.000503126
Heightened Def Con from 0.000503126 +++++++++++to 0.000503126
Heightened Def Con from 0.000503126 ++++++++++to 0.000503126
Heightened Def Con from 0.000503126 ++++++++++to 0.000503126
Heightened Def Con from 0.000503126 ++++++++++to 0.000503126
Heightened Def Con from 0.000503126 ++++++++++to 0.000503126
Heightened Def Con from 0.000503126 +++++++++++to 0.000503126
Heightened Def Con from 0.000503126 +++to 0.000503126
Heightened Def Con from 0.000503126 +++++++++++to 0.000503126
Heightened Def Con from 0.000503126 +++++++++++to 0.000503126
Heightened Def Con from 0.000503126 ++++++to 0.000503126
Heightened Def Con from 0.000503126 ++++++++++to 0.000503126
Heightened Def Con from 0.000503126 +++++++++++to 0.000503126
Heightened Def Con from 0.000503126 ++++++++++to 0.000503126
Heightened Def Con from 0.000503126 +++++++++++to 0.000503126
Heightened Def Con from 0.000503126 +++++++++++to 0.000503126
Heightened Def Con from 0.000503126 +++++++++++to 0.000503126
Heightened Def Con from 0.000503126 ++++++++++to 0.000503126
Heightened Def Con from 0.000503126 ++++++++++to 0.000503126
Heightened Def Con from 0.000503126 +to 0.000503126
Heightened Def Con from 0.000503126 +++++++++++to 0.000503126
Heightened Def Con from 0.000503126 +++++++++++to 0.000503126
Heightened Def Con from 0.000503126 ++++to 0.000503126
Heightened Def Con from 0.000503126 +++++++++++to 0.000503126
Heightened Def Con from 0.000503126 +++++++++++to 0.000503126
Heightened Def Con from 0.000503126 +++++++++++to 0.000503126
Heightened Def Con from 0.000503126 +++++++++++to 0.000503126
Heightened Def Con from 0.000503126 +++++++++++to 0.000503126
Heightened Def Con from 0.000503126 +++++++++++to 0.000503126
Heightened Def Con from 0.000503126 ++++++++++to 0.000503126
Heightened Def Con from 0.000503126 ++++++++++to 0.000503126
Heightened Def Con from 0.000503126 +++++++++++to 0.000503126
Heightened Def Con from 0.000503126 ++++++++++to 0.000503126
Heightened Def Con from 0.000503126 +++++++++++to 0.000503126
Heightened Def Con from 0.000503126 ++++++++++to 0.000503126
Heightened Def Con from 0.000503126 +++++++++++to 0.000503126
Heightened Def Con from 0.000503126 ++++++++++to 0.000503126
Heightened Def Con from 0.000503126 +++++++++++to 0.000503126
Heightened Def Con from 0.000503126 +++++++++++to 0.000503126
Heightened Def Con from 0.000503126 +++++++++++to 0.000503126
Heightened Def Con from 0.000503126 ++++++++++to 0.000503126
Heightened Def Con from 0.000503126 +++++++++++to 0.000503126
Heightened Def Con from 0.000503126 +++++++++++to 0.000503126
Heightened Def Con from 0.000503126 ++++++++++to 0.000503126
Heightened Def Con from 0.000503126 +++++++++++to 0.000503126
Heightened Def Con from 0.000503126 +++++++++++to 0.000503126
Heightened Def Con from 0.000503126 ++++++++++to 0.000503126
Heightened Def Con from 0.000503126 ++++++++++to 0.000503126
Heightened Def Con from 0.000503126 ++++++++++to 0.000503126
Heightened Def Con from 0.000503126 +++++++++++to 0.000503126
Heightened Def Con from 0.000503126 +++++++++++to 0.000503126
Heightened Def Con from 0.000503126 +++++++++++to 0.000503126
Heightened Def Con from 0.000503126 +++++++++++to 0.000503126
Heightened Def Con from 0.000503126 ++++++++++to 0.000503126
Heightened Def Con from 0.000503126 ++++++++++to 0.000503126
Heightened Def Con from 0.000503126 ++++++++++to 0.000503126
Heightened Def Con from 0.000503126 +++++++++++to 0.000503126
Heightened Def Con from 0.000503126 ++++++++++to 0.000503126
Heightened Def Con from 0.000503126 ++++++++++to 0.000503126
Heightened Def Con from 0.000503126 ++++++++++to 0.000503126
Heightened Def Con from 0.000503126 ++++++++++to 0.000503126
Heightened Def Con from 0.000503126 ++++++++++to 0.000503126
Heightened Def Con from 0.000503126 ++++++++++to 0.000503126
Heightened Def Con from 0.000503126 ++++++++++to 0.000503126
Heightened Def Con from 0.000503126 ++++++++++to 0.000503126
Heightened Def Con from 0.000503126 ++++++++++to 0.000503126
Heightened Def Con from 0.000503126 ++++++++++to 0.000503126
Heightened Def Con from 0.000503126 ++to 0.000503126
Heightened Def Con from 0.000503126 +++++++++++to 0.000503126
Heightened Def Con from 0.000503126 +++++++++++to 0.000503126
Heightened Def Con from 0.000503126 +++++++++++to 0.000503126
Heightened Def Con from 0.000503126 +++++++++++to 0.000503126
Heightened Def Con from 0.000503126 +++++++++++to 0.000503126
Heightened Def Con from 0.000503126 +++++++++++to 0.000503126
Heightened Def Con from 0.000503126 +++++++++++to 0.000503126
Heightened Def Con from 0.000503126 +++++++++++to 0.000503126
Heightened Def Con from 0.000503126 ++++++++++to 0.000503126
Heightened Def Con from 0.000503126 +++++++++++to 0.000503126
Heightened Def Con from 0.000503126 +++++++++++to 0.000503126
Heightened Def Con from 0.000503126 +++++++++++to 0.000503126
Heightened Def Con from 0.000503126 +++++++++++to 0.000503126
Heightened Def Con from 0.000503126 ++++++++++to 0.000503126
Heightened Def Con from 0.000503126 ++++++++++to 0.000503126
Heightened Def Con from 0.000503126 ++++++++++to 0.000503126
Heightened Def Con from 0.000503126 ++++++++++to 0.000503126
Heightened Def Con from 0.000503126 +++++++++++to 0.000503126
Heightened Def Con from 0.000503126 +++++++++++to 0.000503126
Heightened Def Con from 0.000503126 +++++++++++to 0.000503126
Heightened Def Con from 0.000503126 +++++++++++to 0.000503126
Heightened Def Con from 0.000503126 +++++to 0.000503126
Heightened Def Con from 0.000503126 ++++++++++to 0.000503126
Heightened Def Con from 0.000503126 ++++++++++to 0.000503126
Heightened Def Con from 0.000503126 ++++++++++to 0.000503126
Heightened Def Con from 0.000503126 ++++++++++to 0.000503126
Heightened Def Con from 0.000503126 +++++++++++to 0.000503126
Heightened Def Con from 0.000503126 ++++++++++to 0.000503126
Heightened Def Con from 0.000503126 ++++++++++to 0.000503126
Heightened Def Con from 0.000503126 +++++++++++to 0.000503126
Heightened Def Con from 0.000503126 ++++++++++to 0.000503126
Heightened Def Con from 0.000503126 +++to 0.000503126
Heightened Def Con from 0.000503126 +to 0.000503126
Heightened Def Con from 0.000503126 ++++++++++to 0.000503126
Heightened Def Con from 0.000503126 ++++++++++to 0.000503126
Heightened Def Con from 0.000503126 +++++++++++to 0.000503126
Heightened Def Con from 0.000503126 ++++++++++to 0.000503126
Heightened Def Con from 0.000503126 ++++++++++to 0.000503126
Heightened Def Con from 0.000503126 +++++++++++to 0.000503126
Heightened Def Con from 0.000503126 ++++++++++to 0.000503126
Heightened Def Con from 0.000503126 ++++++++++to 0.000503126
Heightened Def Con from 0.000503126 ++++++++++to 0.000503126
Heightened Def Con from 0.000503126 +++++++++++to 0.000503126
Heightened Def Con from 0.000503126 ++++++++++to 0.000503126
Heightened Def Con from 0.000503126 +++++++++++to 0.000503126
Heightened Def Con from 0.000503126 ++++++++++to 0.000503126
Heightened Def Con from 0.000503126 ++++++++++to 0.000503126
Heightened Def Con from 0.000503126 ++++++++++to 0.000503126
Heightened Def Con from 0.000503126 +++++++++++to 0.000503126
Heightened Def Con from 0.000503126 +++++++++++to 0.000503126
Heightened Def Con from 0.000503126 +++++++++++to 0.000503126
Heightened Def Con from 0.000503126 +++++++++++to 0.000503126
Heightened Def Con from 0.000503126 +++++++++++to 0.000503126
Heightened Def Con from 0.000503126 ++++++++++to 0.000503126
Heightened Def Con from 0.000503126 +++++++++++to 0.000503126
Heightened Def Con from 0.000503126 +++++++++++to 0.000503126
Heightened Def Con from 0.000503126 +++++++++++to 0.000503126
Heightened Def Con from 0.000503126 +++++++++++to 0.000503126
Heightened Def Con from 0.000503126 ++++++++++to 0.000503126
Heightened Def Con from 0.000503126 +++++++++++to 0.000503126
Heightened Def Con from 0.000503126 +++++++++++to 0.000503126
Heightened Def Con from 0.000503126 +++++++++++to 0.000503126
Heightened Def Con from 0.000503126 +++++++++++to 0.000503126
Heightened Def Con from 0.000503126 +++++++++++to 0.000503126
Heightened Def Con from 0.000503126 ++++++++++to 0.000503126
Heightened Def Con from 0.000503126 ++++++++++to 0.000503126
Heightened Def Con from 0.000503126 ++++++++++to 0.000503126
Heightened Def Con from 0.000503126 +++++++++++to 0.000503126
Heightened Def Con from 0.000503126 ++++++++++to 0.000503126
Heightened Def Con from 0.000503126 ++++++++++to 0.000503126
Heightened Def Con from 0.000503126 ++++++++++to 0.000503126
Heightened Def Con from 0.000503126 +++++++++++to 0.000503126
Heightened Def Con from 0.000503126 +++++++++++to 0.000503126
Heightened Def Con from 0.000503126 +++++++++++to 0.000503126
Heightened Def Con from 0.000503126 +++++++++++to 0.000503126
Heightened Def Con from 0.000503126 ++++++++++to 0.000503126
Heightened Def Con from 0.000503126 ++++++++++to 0.000503126
Heightened Def Con from 0.000503126 +++++++++++to 0.000503126
Heightened Def Con from 0.000503126 ++++++++++to 0.000503126
Heightened Def Con from 0.000503126 ++++++++++to 0.000503126
Heightened Def Con from 0.000503126 +++++++++++to 0.000503126
Heightened Def Con from 0.000503126 +++++++++++to 0.000503126
Heightened Def Con from 0.000503126 ++++++++++to 0.000503126
Heightened Def Con from 0.000503126 ++++++++++to 0.000503126
Heightened Def Con from 0.000503126 +++++++++++to 0.000503126
Heightened Def Con from 0.000503126 +++++++++++to 0.000503126
Heightened Def Con from 0.000503126 ++++++++++to 0.000503126
Heightened Def Con from 0.000503126 +++++++++++to 0.000503126
Heightened Def Con from 0.000503126 +++++++++++to 0.000503126
Heightened Def Con from 0.000503126 ++++++++++to 0.000503126
Heightened Def Con from 0.000503126 ++++++++++to 0.000503126
Heightened Def Con from 0.000503126 +++++++++++to 0.000503126
Heightened Def Con from 0.000503126 +++++++++++to 0.000503126
Heightened Def Con from 0.000503126 +++++++++++to 0.000503126
Heightened Def Con from 0.000503126 ++++++++++to 0.000503126
Heightened Def Con from 0.000503126 +++++++++++to 0.000503126
Heightened Def Con from 0.000503126 ++++++++++to 0.000503126
Heightened Def Con from 0.000503126 +++++++++++to 0.000503126
Heightened Def Con from 0.000503126 ++++++++++to 0.000503126
Heightened Def Con from 0.000503126 +++++++++++to 0.000503126
Heightened Def Con from 0.000503126 ++++++++++to 0.000503126
Heightened Def Con from 0.000503126 +++++++++++to 0.000503126
Heightened Def Con from 0.000503126 ++++++++++to 0.000503126
Heightened Def Con from 0.000503126 ++++++++++to 0.000503126
Heightened Def Con from 0.000503126 +++++++++++to 0.000503126
Heightened Def Con from 0.000503126 ++++++++++to 0.000503126
Heightened Def Con from 0.000503126 ++++++++++to 0.000503126
Heightened Def Con from 0.000503126 ++++++++++to 0.000503126
Heightened Def Con from 0.000503126 to 0.000503126
Heightened Def Con from 0.000503126 ++++++++++to 0.000503126
Heightened Def Con from 0.000503126 ++++++++++to 0.000503126
Heightened Def Con from 0.000503126 +++++++++++to 0.000503126
Heightened Def Con from 0.000503126 ++++++++++to 0.000503126
Heightened Def Con from 0.000503126 +++++++++++to 0.000503126
Heightened Def Con from 0.000503126 ++++++++++to 0.000503126
Heightened Def Con from 0.000503126 +++++++++++to 0.000503126
Heightened Def Con from 0.000503126 +++++++++++to 0.000503126
Heightened Def Con from 0.000503126 +++++++++++to 0.000503126
Heightened Def Con from 0.000503126 +++++++++++to 0.000503126
Heightened Def Con from 0.000503126 +++++++++++to 0.000503126
Heightened Def Con from 0.000503126 ++++++++++to 0.000503126
Heightened Def Con from 0.000503126 ++++++++++to 0.000503126
Heightened Def Con from 0.000503126 ++++++++++to 0.000503126
Heightened Def Con from 0.000503126 +++++++++++to 0.000503126
Heightened Def Con from 0.000503126 +++++++++++to 0.000503126
Heightened Def Con from 0.000503126 +++++++++++to 0.000503126
Heightened Def Con from 0.000503126 +++++++++++to 0.000503126
Heightened Def Con from 0.000503126 +++++++++++to 0.000503126
Heightened Def Con from 0.000503126 +++++++++++to 0.000503126
Heightened Def Con from 0.000503126 ++++++++++to 0.000503126
Heightened Def Con from 0.000503126 +++++++++++to 0.000503126
Heightened Def Con from 0.000503126 +++++++++++to 0.000503126
Heightened Def Con from 0.000503126 ++++++++++to 0.000503126
Heightened Def Con from 0.000503126 +++++++++++to 0.000503126
Heightened Def Con from 0.000503126 ++++++++++to 0.000503126
Heightened Def Con from 0.000503126 ++++++++++to 0.000503126
Heightened Def Con from 0.000503126 ++++++++++to 0.000503126
Heightened Def Con from 0.000503126 +++++++++++to 0.000503126
Heightened Def Con from 0.000503126 +++++++++++to 0.000503126
Heightened Def Con from 0.000503126 +++++++++++to 0.000503126
Heightened Def Con from 0.000503126 ++++++++++to 0.000503126
Heightened Def Con from 0.000503126 +++++++++++to 0.000503126
Heightened Def Con from 0.000503126 +++++++++++to 0.000503126
Heightened Def Con from 0.000503126 +++++++++++to 0.000503126
Heightened Def Con from 0.000503126 +++++++++++to 0.000503126
Heightened Def Con from 0.000503126 +++++++++++to 0.000503126
Heightened Def Con from 0.000503126 +++++++++++to 0.000503126
Heightened Def Con from 0.000503126 ++++++++++to 0.000503126

Date: Mon Sep 27 10:47:46 2021
Total elapsed time: 16.761 seconds.

tnom = 27
temp = 27
method = modified trap
totiter = 7025529
traniter = 7025104
tranpoints = 658403
accept = 83122
rejected = 631320
matrix size = 26
fillins = 1
solver = Normal
Matrix Compiler1: 876 bytes object code size  0.2/0.1/[0.1]
Matrix Compiler2: 1.84 KB object code size  0.2/0.2/[0.1]

